 LISTING FILE: td2_mt.list
                         UNIT  16

 OPENING mt3d_link.ftl
 FILE TYPE:FTL   UNIT  10

 OPENING td2_mt.btn
 FILE TYPE:BTN   UNIT  31

 OPENING td2_mt.adv
 FILE TYPE:ADV   UNIT  32

 OPENING td2_mt.dsp
 FILE TYPE:DSP   UNIT  33

 OPENING td2_mt.ssm
 FILE TYPE:SSM   UNIT  34

 OPENING td2_mt.gcg
 FILE TYPE:GCG   UNIT  35

                              +++++++++++++++++++++++++++++++++++++++++++++++++++++++++++++++++++++++
                              +                                                                     +
                              +                              MT3D-USGS                              +
                              +             A Modular 3D Multi-Species Transport Model              +
                              +    For Simulation of Advection, Dispersion and Chemical Reactions   +
                              +                of Contaminants in Groundwater Systems               +
                              +                                                                     +
                              +++++++++++++++++++++++++++++++++++++++++++++++++++++++++++++++++++++++

  ----- 
 | M T | ## BTN for MT3DMS, generated by Flopy.                                          
 | 3 D | ##                                                                              
  ----- 
 THE TRANSPORT MODEL CONSISTS OF    20 LAYER(S)   20 ROW(S)   42 COLUMN(S)
 NUMBER OF STRESS PERIOD(S) FOR TRANSPORT SIMULATION =    2
 NUMBER OF ALL COMPONENTS INCLUDED IN SIMULATION =    1
 NUMBER OF MOBILE COMPONENTS INCLUDED IN SIMULATION =    1
 UNIT FOR TIME IS M   ;  UNIT FOR LENGTH IS CM  ;  UNIT FOR MASS IS KG  
 OPTIONAL PACKAGES INCLUDED IN CURRENT SIMULATION:
  o ADV   ON UNIT 32
  o DSP   ON UNIT 33
  o SSM   ON UNIT 34
  o GCG   ON UNIT 35


 BTN1 -- BASIC TRANSPORT PACKAGE, VERSION 1, MAY 2016, INPUT READ FROM UNIT 31

 BTN PACKAGE KEYWORD INPUT: 
 DRYCELL OPTION NOT SET
  DRY CELL BUDGET OMITTED FROM GLOBAL MASS BALANCE SUMMARY

 LAYER NUMBER  AQUIFER TYPE
 ------------  ------------
       1            0
       2            0
       3            0
       4            0
       5            0
       6            0
       7            0
       8            0
       9            0
      10            0
      11            0
      12            0
      13            0
      14            0
      15            0
      16            0
      17            0
      18            0
      19            0
      20            0
                                       WIDTH ALONG ROWS (DELR)  =  0.2500000    
                                       WIDTH ALONG COLS (DELC)  =  0.2500000    
                                       TOP ELEV. OF 1ST LAYER   =   0.000000    
                                       CELL THICKNESS (DZ)      =  0.2500000     FOR LAYER  1
                                       CELL THICKNESS (DZ)      =  0.2500000     FOR LAYER  2
                                       CELL THICKNESS (DZ)      =  0.2500000     FOR LAYER  3
                                       CELL THICKNESS (DZ)      =  0.2500000     FOR LAYER  4
                                       CELL THICKNESS (DZ)      =  0.2500000     FOR LAYER  5
                                       CELL THICKNESS (DZ)      =  0.2500000     FOR LAYER  6
                                       CELL THICKNESS (DZ)      =  0.2500000     FOR LAYER  7
                                       CELL THICKNESS (DZ)      =  0.2500000     FOR LAYER  8
                                       CELL THICKNESS (DZ)      =  0.2500000     FOR LAYER  9
                                       CELL THICKNESS (DZ)      =  0.2500000     FOR LAYER 10
                                       CELL THICKNESS (DZ)      =  0.2500000     FOR LAYER 11
                                       CELL THICKNESS (DZ)      =  0.2500000     FOR LAYER 12
                                       CELL THICKNESS (DZ)      =  0.2500000     FOR LAYER 13
                                       CELL THICKNESS (DZ)      =  0.2500000     FOR LAYER 14
                                       CELL THICKNESS (DZ)      =  0.2500000     FOR LAYER 15
                                       CELL THICKNESS (DZ)      =  0.2500000     FOR LAYER 16
                                       CELL THICKNESS (DZ)      =  0.2500000     FOR LAYER 17
                                       CELL THICKNESS (DZ)      =  0.2500000     FOR LAYER 18
                                       CELL THICKNESS (DZ)      =  0.2500000     FOR LAYER 19
                                       CELL THICKNESS (DZ)      =  0.2500000     FOR LAYER 20
                                       POROSITY                 =  0.2500000     FOR LAYER  1
                                       POROSITY                 =  0.2500000     FOR LAYER  2
                                       POROSITY                 =  0.2500000     FOR LAYER  3
                                       POROSITY                 =  0.2500000     FOR LAYER  4
                                       POROSITY                 =  0.2500000     FOR LAYER  5
                                       POROSITY                 =  0.2500000     FOR LAYER  6
                                       POROSITY                 =  0.2500000     FOR LAYER  7
                                       POROSITY                 =  0.2500000     FOR LAYER  8
                                       POROSITY                 =  0.2500000     FOR LAYER  9
                                       POROSITY                 =  0.2500000     FOR LAYER 10
                                       POROSITY                 =  0.2500000     FOR LAYER 11
                                       POROSITY                 =  0.2500000     FOR LAYER 12
                                       POROSITY                 =  0.2500000     FOR LAYER 13
                                       POROSITY                 =  0.2500000     FOR LAYER 14
                                       POROSITY                 =  0.2500000     FOR LAYER 15
                                       POROSITY                 =  0.2500000     FOR LAYER 16
                                       POROSITY                 =  0.2500000     FOR LAYER 17
                                       POROSITY                 =  0.2500000     FOR LAYER 18
                                       POROSITY                 =  0.2500000     FOR LAYER 19
                                       POROSITY                 =  0.2500000     FOR LAYER 20
                                       CONCN. BOUNDARY ARRAY    =              1 FOR LAYER  1
                                       CONCN. BOUNDARY ARRAY    =              1 FOR LAYER  2
                                       CONCN. BOUNDARY ARRAY    =              1 FOR LAYER  3
                                       CONCN. BOUNDARY ARRAY    =              1 FOR LAYER  4
                                       CONCN. BOUNDARY ARRAY    =              1 FOR LAYER  5
                                       CONCN. BOUNDARY ARRAY    =              1 FOR LAYER  6
                                       CONCN. BOUNDARY ARRAY    =              1 FOR LAYER  7
                                       CONCN. BOUNDARY ARRAY    =              1 FOR LAYER  8
                                       CONCN. BOUNDARY ARRAY    =              1 FOR LAYER  9
                                       CONCN. BOUNDARY ARRAY    =              1 FOR LAYER 10
                                       CONCN. BOUNDARY ARRAY    =              1 FOR LAYER 11
                                       CONCN. BOUNDARY ARRAY    =              1 FOR LAYER 12
                                       CONCN. BOUNDARY ARRAY    =              1 FOR LAYER 13
                                       CONCN. BOUNDARY ARRAY    =              1 FOR LAYER 14
                                       CONCN. BOUNDARY ARRAY    =              1 FOR LAYER 15
                                       CONCN. BOUNDARY ARRAY    =              1 FOR LAYER 16
                                       CONCN. BOUNDARY ARRAY    =              1 FOR LAYER 17
                                       CONCN. BOUNDARY ARRAY    =              1 FOR LAYER 18
                                       CONCN. BOUNDARY ARRAY    =              1 FOR LAYER 19
                                       CONCN. BOUNDARY ARRAY    =              1 FOR LAYER 20
                                       INITIAL CONC.: COMP.  01 =   0.000000     FOR LAYER  1
                                       INITIAL CONC.: COMP.  01 =   0.000000     FOR LAYER  2
                                       INITIAL CONC.: COMP.  01 =   0.000000     FOR LAYER  3
                                       INITIAL CONC.: COMP.  01 =   0.000000     FOR LAYER  4
                                       INITIAL CONC.: COMP.  01 =   0.000000     FOR LAYER  5
                                       INITIAL CONC.: COMP.  01 =   0.000000     FOR LAYER  6
                                       INITIAL CONC.: COMP.  01 =   0.000000     FOR LAYER  7
                                       INITIAL CONC.: COMP.  01 =   0.000000     FOR LAYER  8
                                       INITIAL CONC.: COMP.  01 =   0.000000     FOR LAYER  9
                                       INITIAL CONC.: COMP.  01 =   0.000000     FOR LAYER 10
                                       INITIAL CONC.: COMP.  01 =   0.000000     FOR LAYER 11
                                       INITIAL CONC.: COMP.  01 =   0.000000     FOR LAYER 12
                                       INITIAL CONC.: COMP.  01 =   0.000000     FOR LAYER 13
                                       INITIAL CONC.: COMP.  01 =   0.000000     FOR LAYER 14
                                       INITIAL CONC.: COMP.  01 =   0.000000     FOR LAYER 15
                                       INITIAL CONC.: COMP.  01 =   0.000000     FOR LAYER 16
                                       INITIAL CONC.: COMP.  01 =   0.000000     FOR LAYER 17
                                       INITIAL CONC.: COMP.  01 =   0.000000     FOR LAYER 18
                                       INITIAL CONC.: COMP.  01 =   0.000000     FOR LAYER 19
                                       INITIAL CONC.: COMP.  01 =   0.000000     FOR LAYER 20

 VALUE INDICATING INACTIVE CONCENTRATION CELLS =   0.1000000E+31
 MINIMUM SATURATED THICKNESS [THKMIN] ALLOWED =  0.0100000 OF TOTAL CELL THICKNESS


 OUTPUT CONTROL OPTIONS
 ----------------------

 DO NOT PRINT CELL CONCENTRATION
 DO NOT PRINT PARTICLE NUMBER IN EACH CELL
 DO NOT PRINT RETARDATION FACTOR
 DO NOT PRINT DISPERSION COEFFICIENT
 SAVE DISSOLVED PHASE CONCENTRATIONS IN UNFORMATTED FILES [MT3Dnnn.UCN]
  FOR EACH SPECIES ON UNITS 201 AND ABOVE

 NUMBER OF TIMES AT WHICH SIMULATION RESULTS ARE SAVED =  200
 TOTAL ELAPSED TIMES AT WHICH SIMULATION RESULTS ARE SAVED: 
    0.0000      0.10500      0.21000      0.31500      0.42000      0.52500      0.63000      0.73500    
   0.84000      0.94500       1.0500       1.1550       1.2600       1.3650       1.4700       1.5750    
    1.6800       1.7850       1.8900       1.9950       2.1000       2.2050       2.3100       2.4150    
    2.5200       2.6250       2.7300       2.8350       2.9400       3.0450       3.1500       3.2550    
    3.3600       3.4650       3.5700       3.6750       3.7800       3.8850       3.9900       4.0950    
    4.2000       4.3050       4.4100       4.5150       4.6200       4.7250       4.8300       4.9350    
    5.0400       5.1450       5.2500       5.3550       5.4600       5.5650       5.6700       5.7750    
    5.8800       5.9850       6.0900       6.1950       6.3000       6.4050       6.5100       6.6150    
    6.7200       6.8250       6.9300       7.0350       7.1400       7.2450       7.3500       7.4550    
    7.5600       7.6650       7.7700       7.8750       7.9800       8.0850       8.1900       8.2950    
    8.4000       8.5050       8.6100       8.7150       8.8200       8.9250       9.0300       9.1350    
    9.2400       9.3450       9.4500       9.5550       9.6600       9.7650       9.8700       9.9750    
    10.080       10.185       10.290       10.395       10.500       10.605       10.710       10.815    
    10.920       11.025       11.130       11.235       11.340       11.445       11.550       11.655    
    11.760       11.865       11.970       12.075       12.180       12.285       12.390       12.495    
    12.600       12.705       12.810       12.915       13.020       13.125       13.230       13.335    
    13.440       13.545       13.650       13.755       13.860       13.965       14.070       14.175    
    14.280       14.385       14.490       14.595       14.700       14.805       14.910       15.015    
    15.120       15.225       15.330       15.435       15.540       15.645       15.750       15.855    
    15.960       16.065       16.170       16.275       16.380       16.485       16.590       16.695    
    16.800       16.905       17.010       17.115       17.220       17.325       17.430       17.535    
    17.640       17.745       17.850       17.955       18.060       18.165       18.270       18.375    
    18.480       18.585       18.690       18.795       18.900       19.005       19.110       19.215    
    19.320       19.425       19.530       19.635       19.740       19.845       19.950       20.055    
    20.160       20.265       20.370       20.475       20.580       20.685       20.790       20.895    


 NUMBER OF OBSERVATION POINTS =    0

 SAVE ONE-LINE SUMMARY OF MASS BUDGETS IN FILES [MT3Dnnn.MAS]
  FOR EACH SPECIES ON UNITS 601 AND ABOVE, EVERY  1 TRANSPORT STEPS

 MAXIMUM LENGTH ALONG THE X (J) AXIS =   10.50000    
 MAXIMUM LENGTH ALONG THE Y (I) AXIS =   5.000000    
 MAXIMUM LENGTH ALONG THE Z (K) AXIS =   5.000000    
 FMI1 -- FLOW MODEL INTERFACE PACKAGE, VERSION 1, MAY 2016, INPUT READ FROM UNIT 10
 FLOW MODEL IS STEADY-STATE
 FLOW MODEL CONTAINS CONSTANT-HEAD CELLS


 ADV1 -- ADVECTION PACKAGE, VERSION 1, MAY 2016, INPUT READ FROM UNIT 32
 ADVECTION IS SOLVED WITH THE ULTIMATE SCHEME
 COURANT NUMBER ALLOWED IN SOLVING THE ADVECTION TERM = 0.500    


 ADVECTION SOLUTION OPTIONS
 --------------------------

 ADVECTION IS SOLVED WITH THE ULTIMATE SCHEME
 COURANT NUMBER ALLOWED IN SOLVING THE ADVECTION TERM = 0.500    

 DSP1 -- DISPERSION PACKAGE, VERSION 1, MAY 2016, INPUT READ FROM UNIT 33


 DISPERSION INPUT PARAMETERS
 ---------------------------

                                       LONG. DISPERSIVITY (AL)  =  0.1000000     FOR LAYER  1
                                       LONG. DISPERSIVITY (AL)  =  0.1000000     FOR LAYER  2
                                       LONG. DISPERSIVITY (AL)  =  0.1000000     FOR LAYER  3
                                       LONG. DISPERSIVITY (AL)  =  0.1000000     FOR LAYER  4
                                       LONG. DISPERSIVITY (AL)  =  0.1000000     FOR LAYER  5
                                       LONG. DISPERSIVITY (AL)  =  0.1000000     FOR LAYER  6
                                       LONG. DISPERSIVITY (AL)  =  0.1000000     FOR LAYER  7
                                       LONG. DISPERSIVITY (AL)  =  0.1000000     FOR LAYER  8
                                       LONG. DISPERSIVITY (AL)  =  0.1000000     FOR LAYER  9
                                       LONG. DISPERSIVITY (AL)  =  0.1000000     FOR LAYER 10
                                       LONG. DISPERSIVITY (AL)  =  0.1000000     FOR LAYER 11
                                       LONG. DISPERSIVITY (AL)  =  0.1000000     FOR LAYER 12
                                       LONG. DISPERSIVITY (AL)  =  0.1000000     FOR LAYER 13
                                       LONG. DISPERSIVITY (AL)  =  0.1000000     FOR LAYER 14
                                       LONG. DISPERSIVITY (AL)  =  0.1000000     FOR LAYER 15
                                       LONG. DISPERSIVITY (AL)  =  0.1000000     FOR LAYER 16
                                       LONG. DISPERSIVITY (AL)  =  0.1000000     FOR LAYER 17
                                       LONG. DISPERSIVITY (AL)  =  0.1000000     FOR LAYER 18
                                       LONG. DISPERSIVITY (AL)  =  0.1000000     FOR LAYER 19
                                       LONG. DISPERSIVITY (AL)  =  0.1000000     FOR LAYER 20
                                       H. TRANS./LONG. DISP.    =  0.3000000    
                                       V. TRANS./LONG. DISP.    =  0.1000000E-01
                                       DIFFUSION COEFFICIENT    =  0.1000000E-08

 SSM1 -- SINK & SOURCE MIXING PACKAGE, VERSION 1, MAY 2016, INPUT READ FROM UNIT 34
 HEADER LINE OF THE SSM PACKAGE INPUT FILE:
  T F F F F F F F F F F F F F F F                                        
 MAJOR STRESS COMPONENTS PRESENT IN THE FLOW MODEL:
  o WELL [WEL]
 MAXIMUM NUMBER OF POINT SINKS/SOURCES =     800

 GCG1 -- GENERALIZED CONJUGATE GRADIENT SOLVER PACKAGE, VERSION 1, OCTOBER 2010 INPUT READ FROM UNIT 35
 MAXIMUM OF    1 OUTER ITERATIONS
        AND   50 INNER ITERATIONS ALLOWED FOR CLOSURE
 THE PRECONDITIONING TYPE SELECTED IS MODIFIED INCOMPLETE CHOLESKY (MIC).
 DISPERSION CROSS TERMS LUMPED INTO RIGHT-HAND-SIDE



                                               SOLUTION BY THE GENERALIZED CONJUGATE GRADIENT METHOD
                                               -----------------------------------------------------
                                     MAXIMUM OUTER ITERATIONS ALLOWED FOR CLOSURE =        1
                                     MAXIMUM INNER ITERATIONS ALLOWED FOR CLOSURE =       50
                                                    PRECONDITIONING TYPE SELECTED =    3
                                                           ACCELERATION PARAMETER =     1.0000    
                                       CONCENTRATION CHANGE CRITERION FOR CLOSURE =    0.10000E-04
                                       GCG CONCENTRATION CHANGE PRINTOUT INTERVAL =      999


                                   ++++++++++++++++++++++++++++++++++++++++++++++++++++++++++++++
                                                       STRESS PERIOD NO.  001
                                   ++++++++++++++++++++++++++++++++++++++++++++++++++++++++++++++


 LENGTH OF CURRENT STRESS PERIOD =   1.000000    
 NUMBER OF TIME STEPS FOR CURRENT STRESS PERIOD =    1
 TIME STEP MULTIPLIER USED IN FLOW SOLUTION =   1.000000    

 ***Type of Transport Simulation is TRANSIENT

 USER-SPECIFIED TRANSPORT STEPSIZE =   0.000000    M   
 MAXIMUM NUMBER OF TRANSPORT STEPS ALLOWED  IN ONE FLOW TIME STEP =     50000
 MULTIPLIER FOR SUCCESSIVE TRANSPORT STEPS  [USED IN IMPLICIT SCHEMES] =     1.000
 MAXIMUM TRANSPORT STEP SIZE  [USED IN IMPLICIT SCHEMES] =   0.000000    M   

       NO    LAYER   ROW   COLUMN   CONCENTRATION       TYPE            COMPONENT
       1       1       1       1       1.000000         WELL                1
       2       1       2       1       1.000000         WELL                1
       3       1       3       1       1.000000         WELL                1
       4       1       4       1       1.000000         WELL                1
       5       1       5       1       1.000000         WELL                1
       6       1       6       1       1.000000         WELL                1
       7       1       7       1       1.000000         WELL                1
       8       1       8       1       1.000000         WELL                1
       9       1       9       1       1.000000         WELL                1
      10       1      10       1       1.000000         WELL                1
      11       1      11       1       1.000000         WELL                1
      12       1      12       1       1.000000         WELL                1
      13       1      13       1       1.000000         WELL                1
      14       1      14       1       1.000000         WELL                1
      15       1      15       1       1.000000         WELL                1
      16       1      16       1       1.000000         WELL                1
      17       1      17       1       1.000000         WELL                1
      18       1      18       1       1.000000         WELL                1
      19       1      19       1       1.000000         WELL                1
      20       1      20       1       1.000000         WELL                1
      21       2       1       1       1.000000         WELL                1
      22       2       2       1       1.000000         WELL                1
      23       2       3       1       1.000000         WELL                1
      24       2       4       1       1.000000         WELL                1
      25       2       5       1       1.000000         WELL                1
      26       2       6       1       1.000000         WELL                1
      27       2       7       1       1.000000         WELL                1
      28       2       8       1       1.000000         WELL                1
      29       2       9       1       1.000000         WELL                1
      30       2      10       1       1.000000         WELL                1
      31       2      11       1       1.000000         WELL                1
      32       2      12       1       1.000000         WELL                1
      33       2      13       1       1.000000         WELL                1
      34       2      14       1       1.000000         WELL                1
      35       2      15       1       1.000000         WELL                1
      36       2      16       1       1.000000         WELL                1
      37       2      17       1       1.000000         WELL                1
      38       2      18       1       1.000000         WELL                1
      39       2      19       1       1.000000         WELL                1
      40       2      20       1       1.000000         WELL                1
      41       3       1       1       1.000000         WELL                1
      42       3       2       1       1.000000         WELL                1
      43       3       3       1       1.000000         WELL                1
      44       3       4       1       1.000000         WELL                1
      45       3       5       1       1.000000         WELL                1
      46       3       6       1       1.000000         WELL                1
      47       3       7       1       1.000000         WELL                1
      48       3       8       1       1.000000         WELL                1
      49       3       9       1       1.000000         WELL                1
      50       3      10       1       1.000000         WELL                1
      51       3      11       1       1.000000         WELL                1
      52       3      12       1       1.000000         WELL                1
      53       3      13       1       1.000000         WELL                1
      54       3      14       1       1.000000         WELL                1
      55       3      15       1       1.000000         WELL                1
      56       3      16       1       1.000000         WELL                1
      57       3      17       1       1.000000         WELL                1
      58       3      18       1       1.000000         WELL                1
      59       3      19       1       1.000000         WELL                1
      60       3      20       1       1.000000         WELL                1
      61       4       1       1       1.000000         WELL                1
      62       4       2       1       1.000000         WELL                1
      63       4       3       1       1.000000         WELL                1
      64       4       4       1       1.000000         WELL                1
      65       4       5       1       1.000000         WELL                1
      66       4       6       1       1.000000         WELL                1
      67       4       7       1       1.000000         WELL                1
      68       4       8       1       1.000000         WELL                1
      69       4       9       1       1.000000         WELL                1
      70       4      10       1       1.000000         WELL                1
      71       4      11       1       1.000000         WELL                1
      72       4      12       1       1.000000         WELL                1
      73       4      13       1       1.000000         WELL                1
      74       4      14       1       1.000000         WELL                1
      75       4      15       1       1.000000         WELL                1
      76       4      16       1       1.000000         WELL                1
      77       4      17       1       1.000000         WELL                1
      78       4      18       1       1.000000         WELL                1
      79       4      19       1       1.000000         WELL                1
      80       4      20       1       1.000000         WELL                1
      81       5       1       1       1.000000         WELL                1
      82       5       2       1       1.000000         WELL                1
      83       5       3       1       1.000000         WELL                1
      84       5       4       1       1.000000         WELL                1
      85       5       5       1       1.000000         WELL                1
      86       5       6       1       1.000000         WELL                1
      87       5       7       1       1.000000         WELL                1
      88       5       8       1       1.000000         WELL                1
      89       5       9       1       1.000000         WELL                1
      90       5      10       1       1.000000         WELL                1
      91       5      11       1       1.000000         WELL                1
      92       5      12       1       1.000000         WELL                1
      93       5      13       1       1.000000         WELL                1
      94       5      14       1       1.000000         WELL                1
      95       5      15       1       1.000000         WELL                1
      96       5      16       1       1.000000         WELL                1
      97       5      17       1       1.000000         WELL                1
      98       5      18       1       1.000000         WELL                1
      99       5      19       1       1.000000         WELL                1
     100       5      20       1       1.000000         WELL                1
     101       6       1       1       1.000000         WELL                1
     102       6       2       1       1.000000         WELL                1
     103       6       3       1       1.000000         WELL                1
     104       6       4       1       1.000000         WELL                1
     105       6       5       1       1.000000         WELL                1
     106       6       6       1       1.000000         WELL                1
     107       6       7       1       1.000000         WELL                1
     108       6       8       1       1.000000         WELL                1
     109       6       9       1       1.000000         WELL                1
     110       6      10       1       1.000000         WELL                1
     111       6      11       1       1.000000         WELL                1
     112       6      12       1       1.000000         WELL                1
     113       6      13       1       1.000000         WELL                1
     114       6      14       1       1.000000         WELL                1
     115       6      15       1       1.000000         WELL                1
     116       6      16       1       1.000000         WELL                1
     117       6      17       1       1.000000         WELL                1
     118       6      18       1       1.000000         WELL                1
     119       6      19       1       1.000000         WELL                1
     120       6      20       1       1.000000         WELL                1
     121       7       1       1       1.000000         WELL                1
     122       7       2       1       1.000000         WELL                1
     123       7       3       1       1.000000         WELL                1
     124       7       4       1       1.000000         WELL                1
     125       7       5       1       1.000000         WELL                1
     126       7       6       1       1.000000         WELL                1
     127       7       7       1       1.000000         WELL                1
     128       7       8       1       1.000000         WELL                1
     129       7       9       1       1.000000         WELL                1
     130       7      10       1       1.000000         WELL                1
     131       7      11       1       1.000000         WELL                1
     132       7      12       1       1.000000         WELL                1
     133       7      13       1       1.000000         WELL                1
     134       7      14       1       1.000000         WELL                1
     135       7      15       1       1.000000         WELL                1
     136       7      16       1       1.000000         WELL                1
     137       7      17       1       1.000000         WELL                1
     138       7      18       1       1.000000         WELL                1
     139       7      19       1       1.000000         WELL                1
     140       7      20       1       1.000000         WELL                1
     141       8       1       1       1.000000         WELL                1
     142       8       2       1       1.000000         WELL                1
     143       8       3       1       1.000000         WELL                1
     144       8       4       1       1.000000         WELL                1
     145       8       5       1       1.000000         WELL                1
     146       8       6       1       1.000000         WELL                1
     147       8       7       1       1.000000         WELL                1
     148       8       8       1       1.000000         WELL                1
     149       8       9       1       1.000000         WELL                1
     150       8      10       1       1.000000         WELL                1
     151       8      11       1       1.000000         WELL                1
     152       8      12       1       1.000000         WELL                1
     153       8      13       1       1.000000         WELL                1
     154       8      14       1       1.000000         WELL                1
     155       8      15       1       1.000000         WELL                1
     156       8      16       1       1.000000         WELL                1
     157       8      17       1       1.000000         WELL                1
     158       8      18       1       1.000000         WELL                1
     159       8      19       1       1.000000         WELL                1
     160       8      20       1       1.000000         WELL                1
     161       9       1       1       1.000000         WELL                1
     162       9       2       1       1.000000         WELL                1
     163       9       3       1       1.000000         WELL                1
     164       9       4       1       1.000000         WELL                1
     165       9       5       1       1.000000         WELL                1
     166       9       6       1       1.000000         WELL                1
     167       9       7       1       1.000000         WELL                1
     168       9       8       1       1.000000         WELL                1
     169       9       9       1       1.000000         WELL                1
     170       9      10       1       1.000000         WELL                1
     171       9      11       1       1.000000         WELL                1
     172       9      12       1       1.000000         WELL                1
     173       9      13       1       1.000000         WELL                1
     174       9      14       1       1.000000         WELL                1
     175       9      15       1       1.000000         WELL                1
     176       9      16       1       1.000000         WELL                1
     177       9      17       1       1.000000         WELL                1
     178       9      18       1       1.000000         WELL                1
     179       9      19       1       1.000000         WELL                1
     180       9      20       1       1.000000         WELL                1
     181      10       1       1       1.000000         WELL                1
     182      10       2       1       1.000000         WELL                1
     183      10       3       1       1.000000         WELL                1
     184      10       4       1       1.000000         WELL                1
     185      10       5       1       1.000000         WELL                1
     186      10       6       1       1.000000         WELL                1
     187      10       7       1       1.000000         WELL                1
     188      10       8       1       1.000000         WELL                1
     189      10       9       1       1.000000         WELL                1
     190      10      10       1       1.000000         WELL                1
     191      10      11       1       1.000000         WELL                1
     192      10      12       1       1.000000         WELL                1
     193      10      13       1       1.000000         WELL                1
     194      10      14       1       1.000000         WELL                1
     195      10      15       1       1.000000         WELL                1
     196      10      16       1       1.000000         WELL                1
     197      10      17       1       1.000000         WELL                1
     198      10      18       1       1.000000         WELL                1
     199      10      19       1       1.000000         WELL                1
     200      10      20       1       1.000000         WELL                1
     201      11       1       1       1.000000         WELL                1
     202      11       2       1       1.000000         WELL                1
     203      11       3       1       1.000000         WELL                1
     204      11       4       1       1.000000         WELL                1
     205      11       5       1       1.000000         WELL                1
     206      11       6       1       1.000000         WELL                1
     207      11       7       1       1.000000         WELL                1
     208      11       8       1       1.000000         WELL                1
     209      11       9       1       1.000000         WELL                1
     210      11      10       1       1.000000         WELL                1
     211      11      11       1       1.000000         WELL                1
     212      11      12       1       1.000000         WELL                1
     213      11      13       1       1.000000         WELL                1
     214      11      14       1       1.000000         WELL                1
     215      11      15       1       1.000000         WELL                1
     216      11      16       1       1.000000         WELL                1
     217      11      17       1       1.000000         WELL                1
     218      11      18       1       1.000000         WELL                1
     219      11      19       1       1.000000         WELL                1
     220      11      20       1       1.000000         WELL                1
     221      12       1       1       1.000000         WELL                1
     222      12       2       1       1.000000         WELL                1
     223      12       3       1       1.000000         WELL                1
     224      12       4       1       1.000000         WELL                1
     225      12       5       1       1.000000         WELL                1
     226      12       6       1       1.000000         WELL                1
     227      12       7       1       1.000000         WELL                1
     228      12       8       1       1.000000         WELL                1
     229      12       9       1       1.000000         WELL                1
     230      12      10       1       1.000000         WELL                1
     231      12      11       1       1.000000         WELL                1
     232      12      12       1       1.000000         WELL                1
     233      12      13       1       1.000000         WELL                1
     234      12      14       1       1.000000         WELL                1
     235      12      15       1       1.000000         WELL                1
     236      12      16       1       1.000000         WELL                1
     237      12      17       1       1.000000         WELL                1
     238      12      18       1       1.000000         WELL                1
     239      12      19       1       1.000000         WELL                1
     240      12      20       1       1.000000         WELL                1
     241      13       1       1       1.000000         WELL                1
     242      13       2       1       1.000000         WELL                1
     243      13       3       1       1.000000         WELL                1
     244      13       4       1       1.000000         WELL                1
     245      13       5       1       1.000000         WELL                1
     246      13       6       1       1.000000         WELL                1
     247      13       7       1       1.000000         WELL                1
     248      13       8       1       1.000000         WELL                1
     249      13       9       1       1.000000         WELL                1
     250      13      10       1       1.000000         WELL                1
     251      13      11       1       1.000000         WELL                1
     252      13      12       1       1.000000         WELL                1
     253      13      13       1       1.000000         WELL                1
     254      13      14       1       1.000000         WELL                1
     255      13      15       1       1.000000         WELL                1
     256      13      16       1       1.000000         WELL                1
     257      13      17       1       1.000000         WELL                1
     258      13      18       1       1.000000         WELL                1
     259      13      19       1       1.000000         WELL                1
     260      13      20       1       1.000000         WELL                1
     261      14       1       1       1.000000         WELL                1
     262      14       2       1       1.000000         WELL                1
     263      14       3       1       1.000000         WELL                1
     264      14       4       1       1.000000         WELL                1
     265      14       5       1       1.000000         WELL                1
     266      14       6       1       1.000000         WELL                1
     267      14       7       1       1.000000         WELL                1
     268      14       8       1       1.000000         WELL                1
     269      14       9       1       1.000000         WELL                1
     270      14      10       1       1.000000         WELL                1
     271      14      11       1       1.000000         WELL                1
     272      14      12       1       1.000000         WELL                1
     273      14      13       1       1.000000         WELL                1
     274      14      14       1       1.000000         WELL                1
     275      14      15       1       1.000000         WELL                1
     276      14      16       1       1.000000         WELL                1
     277      14      17       1       1.000000         WELL                1
     278      14      18       1       1.000000         WELL                1
     279      14      19       1       1.000000         WELL                1
     280      14      20       1       1.000000         WELL                1
     281      15       1       1       1.000000         WELL                1
     282      15       2       1       1.000000         WELL                1
     283      15       3       1       1.000000         WELL                1
     284      15       4       1       1.000000         WELL                1
     285      15       5       1       1.000000         WELL                1
     286      15       6       1       1.000000         WELL                1
     287      15       7       1       1.000000         WELL                1
     288      15       8       1       1.000000         WELL                1
     289      15       9       1       1.000000         WELL                1
     290      15      10       1       1.000000         WELL                1
     291      15      11       1       1.000000         WELL                1
     292      15      12       1       1.000000         WELL                1
     293      15      13       1       1.000000         WELL                1
     294      15      14       1       1.000000         WELL                1
     295      15      15       1       1.000000         WELL                1
     296      15      16       1       1.000000         WELL                1
     297      15      17       1       1.000000         WELL                1
     298      15      18       1       1.000000         WELL                1
     299      15      19       1       1.000000         WELL                1
     300      15      20       1       1.000000         WELL                1
     301      16       1       1       1.000000         WELL                1
     302      16       2       1       1.000000         WELL                1
     303      16       3       1       1.000000         WELL                1
     304      16       4       1       1.000000         WELL                1
     305      16       5       1       1.000000         WELL                1
     306      16       6       1       1.000000         WELL                1
     307      16       7       1       1.000000         WELL                1
     308      16       8       1       1.000000         WELL                1
     309      16       9       1       1.000000         WELL                1
     310      16      10       1       1.000000         WELL                1
     311      16      11       1       1.000000         WELL                1
     312      16      12       1       1.000000         WELL                1
     313      16      13       1       1.000000         WELL                1
     314      16      14       1       1.000000         WELL                1
     315      16      15       1       1.000000         WELL                1
     316      16      16       1       1.000000         WELL                1
     317      16      17       1       1.000000         WELL                1
     318      16      18       1       1.000000         WELL                1
     319      16      19       1       1.000000         WELL                1
     320      16      20       1       1.000000         WELL                1
     321      17       1       1       1.000000         WELL                1
     322      17       2       1       1.000000         WELL                1
     323      17       3       1       1.000000         WELL                1
     324      17       4       1       1.000000         WELL                1
     325      17       5       1       1.000000         WELL                1
     326      17       6       1       1.000000         WELL                1
     327      17       7       1       1.000000         WELL                1
     328      17       8       1       1.000000         WELL                1
     329      17       9       1       1.000000         WELL                1
     330      17      10       1       1.000000         WELL                1
     331      17      11       1       1.000000         WELL                1
     332      17      12       1       1.000000         WELL                1
     333      17      13       1       1.000000         WELL                1
     334      17      14       1       1.000000         WELL                1
     335      17      15       1       1.000000         WELL                1
     336      17      16       1       1.000000         WELL                1
     337      17      17       1       1.000000         WELL                1
     338      17      18       1       1.000000         WELL                1
     339      17      19       1       1.000000         WELL                1
     340      17      20       1       1.000000         WELL                1
     341      18       1       1       1.000000         WELL                1
     342      18       2       1       1.000000         WELL                1
     343      18       3       1       1.000000         WELL                1
     344      18       4       1       1.000000         WELL                1
     345      18       5       1       1.000000         WELL                1
     346      18       6       1       1.000000         WELL                1
     347      18       7       1       1.000000         WELL                1
     348      18       8       1       1.000000         WELL                1
     349      18       9       1       1.000000         WELL                1
     350      18      10       1       1.000000         WELL                1
     351      18      11       1       1.000000         WELL                1
     352      18      12       1       1.000000         WELL                1
     353      18      13       1       1.000000         WELL                1
     354      18      14       1       1.000000         WELL                1
     355      18      15       1       1.000000         WELL                1
     356      18      16       1       1.000000         WELL                1
     357      18      17       1       1.000000         WELL                1
     358      18      18       1       1.000000         WELL                1
     359      18      19       1       1.000000         WELL                1
     360      18      20       1       1.000000         WELL                1
     361      19       1       1       1.000000         WELL                1
     362      19       2       1       1.000000         WELL                1
     363      19       3       1       1.000000         WELL                1
     364      19       4       1       1.000000         WELL                1
     365      19       5       1       1.000000         WELL                1
     366      19       6       1       1.000000         WELL                1
     367      19       7       1       1.000000         WELL                1
     368      19       8       1       1.000000         WELL                1
     369      19       9       1       1.000000         WELL                1
     370      19      10       1       1.000000         WELL                1
     371      19      11       1       1.000000         WELL                1
     372      19      12       1       1.000000         WELL                1
     373      19      13       1       1.000000         WELL                1
     374      19      14       1       1.000000         WELL                1
     375      19      15       1       1.000000         WELL                1
     376      19      16       1       1.000000         WELL                1
     377      19      17       1       1.000000         WELL                1
     378      19      18       1       1.000000         WELL                1
     379      19      19       1       1.000000         WELL                1
     380      19      20       1       1.000000         WELL                1
     381      20       1       1       1.000000         WELL                1
     382      20       2       1       1.000000         WELL                1
     383      20       3       1       1.000000         WELL                1
     384      20       4       1       1.000000         WELL                1
     385      20       5       1       1.000000         WELL                1
     386      20       6       1       1.000000         WELL                1
     387      20       7       1       1.000000         WELL                1
     388      20       8       1       1.000000         WELL                1
     389      20       9       1       1.000000         WELL                1
     390      20      10       1       1.000000         WELL                1
     391      20      11       1       1.000000         WELL                1
     392      20      12       1       1.000000         WELL                1
     393      20      13       1       1.000000         WELL                1
     394      20      14       1       1.000000         WELL                1
     395      20      15       1       1.000000         WELL                1
     396      20      16       1       1.000000         WELL                1
     397      20      17       1       1.000000         WELL                1
     398      20      18       1       1.000000         WELL                1
     399      20      19       1       1.000000         WELL                1
     400      20      20       1       1.000000         WELL                1


                                          ================================================
                                                         TIME STEP NO.  001
                                          ================================================

 FROM TIME =   0.0000     TO    1.0000    


                    "THKSAT          " FLOW TERMS FOR TIME STEP  1, STRESS PERIOD  1 READ UNFORMATTED ON UNIT 10
                    --------------------------------------------------------------------------------------------

                    "QXX             " FLOW TERMS FOR TIME STEP  1, STRESS PERIOD  1 READ UNFORMATTED ON UNIT 10
                    --------------------------------------------------------------------------------------------

                    "QYY             " FLOW TERMS FOR TIME STEP  1, STRESS PERIOD  1 READ UNFORMATTED ON UNIT 10
                    --------------------------------------------------------------------------------------------

                    "QZZ             " FLOW TERMS FOR TIME STEP  1, STRESS PERIOD  1 READ UNFORMATTED ON UNIT 10
                    --------------------------------------------------------------------------------------------

 MAXIMUM STEPSIZE DURING WHICH ANY PARTICLE CANNOT MOVE MORE THAN ONE CELL
 = 0.1287    (WHEN MIN. R.F.=1)  AT K=  18, I=   1, J=  18

 MAXIMUM STEPSIZE WHICH MEETS STABILITY CRITERION OF THE ADVECTION TERM
 (FOR PURE FINITE-DIFFERENCE OPTION, MIXELM=0) 
 = 0.1039    (WHEN MIN. R.F.=1)  AT K=  16, I=   1, J=  16

                    "CNH             " FLOW TERMS FOR TIME STEP  1, STRESS PERIOD  1 READ UNFORMATTED ON UNIT 10
                    --------------------------------------------------------------------------------------------

                    "WEL             " FLOW TERMS FOR TIME STEP  1, STRESS PERIOD  1 READ UNFORMATTED ON UNIT 10
                    --------------------------------------------------------------------------------------------


 TOTAL NUMBER OF POINT SOURCES/SINKS PRESENT IN THE FLOW MODEL =   800

 MAXIMUM STEPSIZE WHICH MEETS STABILITY CRITERION OF THE SINK & SOURCE TERM
 = 0.1583    (WHEN MIN. R.F.=1)  AT K=   1, I=   1, J=   1

 MAXIMUM STEPSIZE WHICH MEETS STABILITY CRITERION OF THE DISPERSION TERM
 = 0.1224    (WHEN MIN. R.F.=1)  AT K=  16, I=   1, J=  16



 >>>>>>>>>>>>>>>>>>>>>>>>>>>>>>>>>>>>>>>>>>>>>>>>>>>>>>>FOR COMPONENT NO. 01<<<<<<<<<<<<<<<<<<<<<<<<<<<<<<<<<<<<<<<<<<<<<<<<<<<<<<<


                                            -------------------------------------------
                                                      TRANSPORT STEP NO.    1
                                            -------------------------------------------

 TOTAL ELAPSED TIME SINCE BEGINNING OF SIMULATION =   0.000000    M   
 .....................................................................

                     CUMULATIVE MASS BUDGETS AT END OF TRANSPORT STEP    1, TIME STEP    1, STRESS PERIOD    1
                     -----------------------------------------------------------------------------------------

                                                             IN                           OUT
                                                      ----------------             ----------------
                               CONSTANT CONCENTRATION:    0.000000                    0.000000    
                                        CONSTANT HEAD:    0.000000                    0.000000    
                                                WELLS:    0.000000                    0.000000    
                               MASS STOR (FLOW MODEL):    0.000000                    0.000000    
                                MASS STORAGE (SOLUTE):    0.000000                    0.000000    
                            ---------------------------------------------------------------------------
                                              [TOTAL]:    0.000000     KG             0.000000     KG  

                                                          NET (IN - OUT):    0.000000    
                                                   DISCREPANCY (PERCENT):    0.000000    
     1 CALLS TO GCG PACKAGE FOR TRANSPORT TIME STEP     2 IN FLOW TIME STEP     1 STRESS PERIOD     1
      3 TOTAL ITERATIONS
     1 CALLS TO GCG PACKAGE FOR TRANSPORT TIME STEP     3 IN FLOW TIME STEP     1 STRESS PERIOD     1
      4 TOTAL ITERATIONS
     1 CALLS TO GCG PACKAGE FOR TRANSPORT TIME STEP     4 IN FLOW TIME STEP     1 STRESS PERIOD     1
      2 TOTAL ITERATIONS



 >>>>>>>>>>>>>>>>>>>>>>>>>>>>>>>>>>>>>>>>>>>>>>>>>>>>>>>FOR COMPONENT NO. 01<<<<<<<<<<<<<<<<<<<<<<<<<<<<<<<<<<<<<<<<<<<<<<<<<<<<<<<


                                            -------------------------------------------
                                                      TRANSPORT STEP NO.    4
                                            -------------------------------------------

 TOTAL ELAPSED TIME SINCE BEGINNING OF SIMULATION =  0.1050000    M   
 .....................................................................

                     CUMULATIVE MASS BUDGETS AT END OF TRANSPORT STEP    4, TIME STEP    1, STRESS PERIOD    1
                     -----------------------------------------------------------------------------------------

                                                             IN                           OUT
                                                      ----------------             ----------------
                               CONSTANT CONCENTRATION:    0.000000                    0.000000    
                                        CONSTANT HEAD:    0.000000                    0.000000    
                                                WELLS:    1.036101                    0.000000    
                               MASS STOR (FLOW MODEL):    0.000000                    0.000000    
                                MASS STORAGE (SOLUTE):    0.000000                   -1.036098    
                            ---------------------------------------------------------------------------
                                              [TOTAL]:    1.036101     KG            -1.036098     KG  

                                                          NET (IN - OUT):   0.3218651E-05
                                                   DISCREPANCY (PERCENT):   0.3106508E-03
     1 CALLS TO GCG PACKAGE FOR TRANSPORT TIME STEP     5 IN FLOW TIME STEP     1 STRESS PERIOD     1
      4 TOTAL ITERATIONS
     1 CALLS TO GCG PACKAGE FOR TRANSPORT TIME STEP     6 IN FLOW TIME STEP     1 STRESS PERIOD     1
      4 TOTAL ITERATIONS
     1 CALLS TO GCG PACKAGE FOR TRANSPORT TIME STEP     7 IN FLOW TIME STEP     1 STRESS PERIOD     1
      2 TOTAL ITERATIONS



 >>>>>>>>>>>>>>>>>>>>>>>>>>>>>>>>>>>>>>>>>>>>>>>>>>>>>>>FOR COMPONENT NO. 01<<<<<<<<<<<<<<<<<<<<<<<<<<<<<<<<<<<<<<<<<<<<<<<<<<<<<<<


                                            -------------------------------------------
                                                      TRANSPORT STEP NO.    7
                                            -------------------------------------------

 TOTAL ELAPSED TIME SINCE BEGINNING OF SIMULATION =  0.2100000    M   
 .....................................................................

                     CUMULATIVE MASS BUDGETS AT END OF TRANSPORT STEP    7, TIME STEP    1, STRESS PERIOD    1
                     -----------------------------------------------------------------------------------------

                                                             IN                           OUT
                                                      ----------------             ----------------
                               CONSTANT CONCENTRATION:    0.000000                    0.000000    
                                        CONSTANT HEAD:    0.000000                    0.000000    
                                                WELLS:    2.072201                    0.000000    
                               MASS STOR (FLOW MODEL):    0.000000                    0.000000    
                                MASS STORAGE (SOLUTE):    0.000000                   -2.072194    
                            ---------------------------------------------------------------------------
                                              [TOTAL]:    2.072201     KG            -2.072194     KG  

                                                          NET (IN - OUT):   0.7390976E-05
                                                   DISCREPANCY (PERCENT):   0.3566733E-03
     1 CALLS TO GCG PACKAGE FOR TRANSPORT TIME STEP     8 IN FLOW TIME STEP     1 STRESS PERIOD     1
      3 TOTAL ITERATIONS
     1 CALLS TO GCG PACKAGE FOR TRANSPORT TIME STEP     9 IN FLOW TIME STEP     1 STRESS PERIOD     1
      3 TOTAL ITERATIONS
     1 CALLS TO GCG PACKAGE FOR TRANSPORT TIME STEP    10 IN FLOW TIME STEP     1 STRESS PERIOD     1
      2 TOTAL ITERATIONS



 >>>>>>>>>>>>>>>>>>>>>>>>>>>>>>>>>>>>>>>>>>>>>>>>>>>>>>>FOR COMPONENT NO. 01<<<<<<<<<<<<<<<<<<<<<<<<<<<<<<<<<<<<<<<<<<<<<<<<<<<<<<<


                                            -------------------------------------------
                                                      TRANSPORT STEP NO.   10
                                            -------------------------------------------

 TOTAL ELAPSED TIME SINCE BEGINNING OF SIMULATION =  0.3150000    M   
 .....................................................................

                     CUMULATIVE MASS BUDGETS AT END OF TRANSPORT STEP   10, TIME STEP    1, STRESS PERIOD    1
                     -----------------------------------------------------------------------------------------

                                                             IN                           OUT
                                                      ----------------             ----------------
                               CONSTANT CONCENTRATION:    0.000000                    0.000000    
                                        CONSTANT HEAD:    0.000000                  -0.2445392E-34
                                                WELLS:    3.108303                    0.000000    
                               MASS STOR (FLOW MODEL):    0.000000                    0.000000    
                                MASS STORAGE (SOLUTE):    0.000000                   -3.108292    
                            ---------------------------------------------------------------------------
                                              [TOTAL]:    3.108303     KG            -3.108292     KG  

                                                          NET (IN - OUT):   0.1072884E-04
                                                   DISCREPANCY (PERCENT):   0.3451676E-03
     1 CALLS TO GCG PACKAGE FOR TRANSPORT TIME STEP    11 IN FLOW TIME STEP     1 STRESS PERIOD     1
      3 TOTAL ITERATIONS
     1 CALLS TO GCG PACKAGE FOR TRANSPORT TIME STEP    12 IN FLOW TIME STEP     1 STRESS PERIOD     1
      3 TOTAL ITERATIONS
     1 CALLS TO GCG PACKAGE FOR TRANSPORT TIME STEP    13 IN FLOW TIME STEP     1 STRESS PERIOD     1
      2 TOTAL ITERATIONS



 >>>>>>>>>>>>>>>>>>>>>>>>>>>>>>>>>>>>>>>>>>>>>>>>>>>>>>>FOR COMPONENT NO. 01<<<<<<<<<<<<<<<<<<<<<<<<<<<<<<<<<<<<<<<<<<<<<<<<<<<<<<<


                                            -------------------------------------------
                                                      TRANSPORT STEP NO.   13
                                            -------------------------------------------

 TOTAL ELAPSED TIME SINCE BEGINNING OF SIMULATION =  0.4200000    M   
 .....................................................................

                     CUMULATIVE MASS BUDGETS AT END OF TRANSPORT STEP   13, TIME STEP    1, STRESS PERIOD    1
                     -----------------------------------------------------------------------------------------

                                                             IN                           OUT
                                                      ----------------             ----------------
                               CONSTANT CONCENTRATION:    0.000000                    0.000000    
                                        CONSTANT HEAD:    0.000000                  -0.1894445E-32
                                                WELLS:    4.144403                    0.000000    
                               MASS STOR (FLOW MODEL):    0.000000                    0.000000    
                                MASS STORAGE (SOLUTE):    0.000000                   -4.144388    
                            ---------------------------------------------------------------------------
                                              [TOTAL]:    4.144403     KG            -4.144388     KG  

                                                          NET (IN - OUT):   0.1525879E-04
                                                   DISCREPANCY (PERCENT):   0.3681789E-03
     1 CALLS TO GCG PACKAGE FOR TRANSPORT TIME STEP    14 IN FLOW TIME STEP     1 STRESS PERIOD     1
      3 TOTAL ITERATIONS
     1 CALLS TO GCG PACKAGE FOR TRANSPORT TIME STEP    15 IN FLOW TIME STEP     1 STRESS PERIOD     1
      3 TOTAL ITERATIONS
     1 CALLS TO GCG PACKAGE FOR TRANSPORT TIME STEP    16 IN FLOW TIME STEP     1 STRESS PERIOD     1
      2 TOTAL ITERATIONS



 >>>>>>>>>>>>>>>>>>>>>>>>>>>>>>>>>>>>>>>>>>>>>>>>>>>>>>>FOR COMPONENT NO. 01<<<<<<<<<<<<<<<<<<<<<<<<<<<<<<<<<<<<<<<<<<<<<<<<<<<<<<<


                                            -------------------------------------------
                                                      TRANSPORT STEP NO.   16
                                            -------------------------------------------

 TOTAL ELAPSED TIME SINCE BEGINNING OF SIMULATION =  0.5250000    M   
 .....................................................................

                     CUMULATIVE MASS BUDGETS AT END OF TRANSPORT STEP   16, TIME STEP    1, STRESS PERIOD    1
                     -----------------------------------------------------------------------------------------

                                                             IN                           OUT
                                                      ----------------             ----------------
                               CONSTANT CONCENTRATION:    0.000000                    0.000000    
                                        CONSTANT HEAD:    0.000000                  -0.8300963E-31
                                                WELLS:    5.180504                    0.000000    
                               MASS STOR (FLOW MODEL):    0.000000                    0.000000    
                                MASS STORAGE (SOLUTE):    0.000000                   -5.180486    
                            ---------------------------------------------------------------------------
                                              [TOTAL]:    5.180504     KG            -5.180486     KG  

                                                          NET (IN - OUT):   0.1811981E-04
                                                   DISCREPANCY (PERCENT):   0.3497699E-03
     1 CALLS TO GCG PACKAGE FOR TRANSPORT TIME STEP    17 IN FLOW TIME STEP     1 STRESS PERIOD     1
      3 TOTAL ITERATIONS
     1 CALLS TO GCG PACKAGE FOR TRANSPORT TIME STEP    18 IN FLOW TIME STEP     1 STRESS PERIOD     1
      3 TOTAL ITERATIONS
     1 CALLS TO GCG PACKAGE FOR TRANSPORT TIME STEP    19 IN FLOW TIME STEP     1 STRESS PERIOD     1
      2 TOTAL ITERATIONS



 >>>>>>>>>>>>>>>>>>>>>>>>>>>>>>>>>>>>>>>>>>>>>>>>>>>>>>>FOR COMPONENT NO. 01<<<<<<<<<<<<<<<<<<<<<<<<<<<<<<<<<<<<<<<<<<<<<<<<<<<<<<<


                                            -------------------------------------------
                                                      TRANSPORT STEP NO.   19
                                            -------------------------------------------

 TOTAL ELAPSED TIME SINCE BEGINNING OF SIMULATION =  0.6300000    M   
 .....................................................................

                     CUMULATIVE MASS BUDGETS AT END OF TRANSPORT STEP   19, TIME STEP    1, STRESS PERIOD    1
                     -----------------------------------------------------------------------------------------

                                                             IN                           OUT
                                                      ----------------             ----------------
                               CONSTANT CONCENTRATION:    0.000000                    0.000000    
                                        CONSTANT HEAD:    0.000000                  -0.2555468E-29
                                                WELLS:    6.216606                    0.000000    
                               MASS STOR (FLOW MODEL):    0.000000                    0.000000    
                                MASS STORAGE (SOLUTE):    0.000000                   -6.216584    
                            ---------------------------------------------------------------------------
                                              [TOTAL]:    6.216606     KG            -6.216584     KG  

                                                          NET (IN - OUT):   0.2145767E-04
                                                   DISCREPANCY (PERCENT):   0.3451676E-03
     1 CALLS TO GCG PACKAGE FOR TRANSPORT TIME STEP    20 IN FLOW TIME STEP     1 STRESS PERIOD     1
      3 TOTAL ITERATIONS
     1 CALLS TO GCG PACKAGE FOR TRANSPORT TIME STEP    21 IN FLOW TIME STEP     1 STRESS PERIOD     1
      3 TOTAL ITERATIONS
     1 CALLS TO GCG PACKAGE FOR TRANSPORT TIME STEP    22 IN FLOW TIME STEP     1 STRESS PERIOD     1
      2 TOTAL ITERATIONS



 >>>>>>>>>>>>>>>>>>>>>>>>>>>>>>>>>>>>>>>>>>>>>>>>>>>>>>>FOR COMPONENT NO. 01<<<<<<<<<<<<<<<<<<<<<<<<<<<<<<<<<<<<<<<<<<<<<<<<<<<<<<<


                                            -------------------------------------------
                                                      TRANSPORT STEP NO.   22
                                            -------------------------------------------

 TOTAL ELAPSED TIME SINCE BEGINNING OF SIMULATION =  0.7350000    M   
 .....................................................................

                     CUMULATIVE MASS BUDGETS AT END OF TRANSPORT STEP   22, TIME STEP    1, STRESS PERIOD    1
                     -----------------------------------------------------------------------------------------

                                                             IN                           OUT
                                                      ----------------             ----------------
                               CONSTANT CONCENTRATION:    0.000000                    0.000000    
                                        CONSTANT HEAD:    0.000000                  -0.5961872E-28
                                                WELLS:    7.252707                    0.000000    
                               MASS STOR (FLOW MODEL):    0.000000                    0.000000    
                                MASS STORAGE (SOLUTE):    0.000000                   -7.252682    
                            ---------------------------------------------------------------------------
                                              [TOTAL]:    7.252707     KG            -7.252682     KG  

                                                          NET (IN - OUT):   0.2479553E-04
                                                   DISCREPANCY (PERCENT):   0.3418803E-03
     1 CALLS TO GCG PACKAGE FOR TRANSPORT TIME STEP    23 IN FLOW TIME STEP     1 STRESS PERIOD     1
      3 TOTAL ITERATIONS
     1 CALLS TO GCG PACKAGE FOR TRANSPORT TIME STEP    24 IN FLOW TIME STEP     1 STRESS PERIOD     1
      3 TOTAL ITERATIONS
     1 CALLS TO GCG PACKAGE FOR TRANSPORT TIME STEP    25 IN FLOW TIME STEP     1 STRESS PERIOD     1
      2 TOTAL ITERATIONS



 >>>>>>>>>>>>>>>>>>>>>>>>>>>>>>>>>>>>>>>>>>>>>>>>>>>>>>>FOR COMPONENT NO. 01<<<<<<<<<<<<<<<<<<<<<<<<<<<<<<<<<<<<<<<<<<<<<<<<<<<<<<<


                                            -------------------------------------------
                                                      TRANSPORT STEP NO.   25
                                            -------------------------------------------

 TOTAL ELAPSED TIME SINCE BEGINNING OF SIMULATION =  0.8400000    M   
 .....................................................................

                     CUMULATIVE MASS BUDGETS AT END OF TRANSPORT STEP   25, TIME STEP    1, STRESS PERIOD    1
                     -----------------------------------------------------------------------------------------

                                                             IN                           OUT
                                                      ----------------             ----------------
                               CONSTANT CONCENTRATION:    0.000000                    0.000000    
                                        CONSTANT HEAD:    0.000000                  -0.1110738E-26
                                                WELLS:    8.288807                    0.000000    
                               MASS STOR (FLOW MODEL):    0.000000                    0.000000    
                                MASS STORAGE (SOLUTE):    0.000000                   -8.288779    
                            ---------------------------------------------------------------------------
                                              [TOTAL]:    8.288807     KG            -8.288779     KG  

                                                          NET (IN - OUT):   0.2765656E-04
                                                   DISCREPANCY (PERCENT):   0.3336620E-03
     1 CALLS TO GCG PACKAGE FOR TRANSPORT TIME STEP    26 IN FLOW TIME STEP     1 STRESS PERIOD     1
      3 TOTAL ITERATIONS
     1 CALLS TO GCG PACKAGE FOR TRANSPORT TIME STEP    27 IN FLOW TIME STEP     1 STRESS PERIOD     1
      3 TOTAL ITERATIONS
     1 CALLS TO GCG PACKAGE FOR TRANSPORT TIME STEP    28 IN FLOW TIME STEP     1 STRESS PERIOD     1
      2 TOTAL ITERATIONS



 >>>>>>>>>>>>>>>>>>>>>>>>>>>>>>>>>>>>>>>>>>>>>>>>>>>>>>>FOR COMPONENT NO. 01<<<<<<<<<<<<<<<<<<<<<<<<<<<<<<<<<<<<<<<<<<<<<<<<<<<<<<<


                                            -------------------------------------------
                                                      TRANSPORT STEP NO.   28
                                            -------------------------------------------

 TOTAL ELAPSED TIME SINCE BEGINNING OF SIMULATION =  0.9450000    M   
 .....................................................................

                     CUMULATIVE MASS BUDGETS AT END OF TRANSPORT STEP   28, TIME STEP    1, STRESS PERIOD    1
                     -----------------------------------------------------------------------------------------

                                                             IN                           OUT
                                                      ----------------             ----------------
                               CONSTANT CONCENTRATION:    0.000000                    0.000000    
                                        CONSTANT HEAD:    0.000000                  -0.1719160E-25
                                                WELLS:    9.324908                    0.000000    
                               MASS STOR (FLOW MODEL):    0.000000                    0.000000    
                                MASS STORAGE (SOLUTE):   0.3601890E-06               -9.324878    
                            ---------------------------------------------------------------------------
                                              [TOTAL]:    9.324908     KG            -9.324878     KG  

                                                          NET (IN - OUT):   0.3051758E-04
                                                   DISCREPANCY (PERCENT):   0.3272700E-03
     1 CALLS TO GCG PACKAGE FOR TRANSPORT TIME STEP    29 IN FLOW TIME STEP     1 STRESS PERIOD     1
      3 TOTAL ITERATIONS
     1 CALLS TO GCG PACKAGE FOR TRANSPORT TIME STEP    30 IN FLOW TIME STEP     1 STRESS PERIOD     1
      2 TOTAL ITERATIONS
  MAXIMUM CONCENTRATION CHANGES FOR EACH ITERATION:
  MAX. CHANGE LAYER,ROW,COL MAX. CHANGE LAYER,ROW,COL MAX. CHANGE LAYER,ROW,COL MAX. CHANGE LAYER,ROW,COL MAX. CHANGE LAYER,ROW,COL
 ------------------------------------------------------------------------------------------------------------------------------------
   0.1955E-01 (  2, 11,  1)  0.5364E-06 ( 11,  2,  2)



 >>>>>>>>>>>>>>>>>>>>>>>>>>>>>>>>>>>>>>>>>>>>>>>>>>>>>>>FOR COMPONENT NO. 01<<<<<<<<<<<<<<<<<<<<<<<<<<<<<<<<<<<<<<<<<<<<<<<<<<<<<<<


                                            -------------------------------------------
                                                      TRANSPORT STEP NO.   30
                                            -------------------------------------------

 TOTAL ELAPSED TIME SINCE BEGINNING OF SIMULATION =   1.000000    M   
 .....................................................................

                     CUMULATIVE MASS BUDGETS AT END OF TRANSPORT STEP   30, TIME STEP    1, STRESS PERIOD    1
                     -----------------------------------------------------------------------------------------

                                                             IN                           OUT
                                                      ----------------             ----------------
                               CONSTANT CONCENTRATION:    0.000000                    0.000000    
                                        CONSTANT HEAD:    0.000000                  -0.6618105E-25
                                                WELLS:    9.867628                    0.000000    
                               MASS STOR (FLOW MODEL):    0.000000                    0.000000    
                                MASS STORAGE (SOLUTE):   0.2388144E-05               -9.867599    
                            ---------------------------------------------------------------------------
                                              [TOTAL]:    9.867631     KG            -9.867599     KG  

                                                          NET (IN - OUT):   0.3242493E-04
                                                   DISCREPANCY (PERCENT):   0.3285994E-03


                                   ++++++++++++++++++++++++++++++++++++++++++++++++++++++++++++++
                                                       STRESS PERIOD NO.  002
                                   ++++++++++++++++++++++++++++++++++++++++++++++++++++++++++++++


 LENGTH OF CURRENT STRESS PERIOD =   20.00000    
 NUMBER OF TIME STEPS FOR CURRENT STRESS PERIOD =    1
 TIME STEP MULTIPLIER USED IN FLOW SOLUTION =   1.000000    

 ***Type of Transport Simulation is TRANSIENT

 USER-SPECIFIED TRANSPORT STEPSIZE =   0.000000    M   
 MAXIMUM NUMBER OF TRANSPORT STEPS ALLOWED  IN ONE FLOW TIME STEP =     50000
 MULTIPLIER FOR SUCCESSIVE TRANSPORT STEPS  [USED IN IMPLICIT SCHEMES] =     1.000
 MAXIMUM TRANSPORT STEP SIZE  [USED IN IMPLICIT SCHEMES] =   0.000000    M   

       NO    LAYER   ROW   COLUMN   CONCENTRATION       TYPE            COMPONENT


                                          ================================================
                                                         TIME STEP NO.  001
                                          ================================================

 FROM TIME =   1.0000     TO    21.000    


                    "THKSAT          " FLOW TERMS FOR TIME STEP  1, STRESS PERIOD  2 READ UNFORMATTED ON UNIT 10
                    --------------------------------------------------------------------------------------------

                    "QXX             " FLOW TERMS FOR TIME STEP  1, STRESS PERIOD  2 READ UNFORMATTED ON UNIT 10
                    --------------------------------------------------------------------------------------------

                    "QYY             " FLOW TERMS FOR TIME STEP  1, STRESS PERIOD  2 READ UNFORMATTED ON UNIT 10
                    --------------------------------------------------------------------------------------------

                    "QZZ             " FLOW TERMS FOR TIME STEP  1, STRESS PERIOD  2 READ UNFORMATTED ON UNIT 10
                    --------------------------------------------------------------------------------------------

 MAXIMUM STEPSIZE DURING WHICH ANY PARTICLE CANNOT MOVE MORE THAN ONE CELL
 = 0.1287    (WHEN MIN. R.F.=1)  AT K=  18, I=   1, J=  18

 MAXIMUM STEPSIZE WHICH MEETS STABILITY CRITERION OF THE ADVECTION TERM
 (FOR PURE FINITE-DIFFERENCE OPTION, MIXELM=0) 
 = 0.1039    (WHEN MIN. R.F.=1)  AT K=  16, I=   1, J=  16

                    "CNH             " FLOW TERMS FOR TIME STEP  1, STRESS PERIOD  2 READ UNFORMATTED ON UNIT 10
                    --------------------------------------------------------------------------------------------

                    "WEL             " FLOW TERMS FOR TIME STEP  1, STRESS PERIOD  2 READ UNFORMATTED ON UNIT 10
                    --------------------------------------------------------------------------------------------


 TOTAL NUMBER OF POINT SOURCES/SINKS PRESENT IN THE FLOW MODEL =   800

 MAXIMUM STEPSIZE WHICH MEETS STABILITY CRITERION OF THE SINK & SOURCE TERM
 = 0.1583    (WHEN MIN. R.F.=1)  AT K=   1, I=   1, J=   1

 MAXIMUM STEPSIZE WHICH MEETS STABILITY CRITERION OF THE DISPERSION TERM
 = 0.1224    (WHEN MIN. R.F.=1)  AT K=  16, I=   1, J=  16


     1 CALLS TO GCG PACKAGE FOR TRANSPORT TIME STEP     1 IN FLOW TIME STEP     1 STRESS PERIOD     2
      3 TOTAL ITERATIONS



[...]


 >>>>>>>>>>>>>>>>>>>>>>>>>>>>>>>>>>>>>>>>>>>>>>>>>>>>>>>FOR COMPONENT NO. 01<<<<<<<<<<<<<<<<<<<<<<<<<<<<<<<<<<<<<<<<<<<<<<<<<<<<<<<


                                            -------------------------------------------
                                                      TRANSPORT STEP NO.  547
                                            -------------------------------------------

 TOTAL ELAPSED TIME SINCE BEGINNING OF SIMULATION =   20.16000    M   
 .....................................................................

                     CUMULATIVE MASS BUDGETS AT END OF TRANSPORT STEP  547, TIME STEP    1, STRESS PERIOD    2
                     -----------------------------------------------------------------------------------------

                                                             IN                           OUT
                                                      ----------------             ----------------
                               CONSTANT CONCENTRATION:    0.000000                    0.000000    
                                        CONSTANT HEAD:    0.000000                   -9.867652    
                                                WELLS:    9.867628                    0.000000    
                               MASS STOR (FLOW MODEL):    0.000000                    0.000000    
                                MASS STORAGE (SOLUTE):    40.23372                   -40.23375    
                            ---------------------------------------------------------------------------
                                              [TOTAL]:    50.10135     KG            -50.10140     KG  

                                                          NET (IN - OUT):  -0.5340576E-04
                                                   DISCREPANCY (PERCENT):  -0.1065954E-03
     1 CALLS TO GCG PACKAGE FOR TRANSPORT TIME STEP   548 IN FLOW TIME STEP     1 STRESS PERIOD     2
      3 TOTAL ITERATIONS
     1 CALLS TO GCG PACKAGE FOR TRANSPORT TIME STEP   549 IN FLOW TIME STEP     1 STRESS PERIOD     2
      3 TOTAL ITERATIONS
     1 CALLS TO GCG PACKAGE FOR TRANSPORT TIME STEP   550 IN FLOW TIME STEP     1 STRESS PERIOD     2
      2 TOTAL ITERATIONS



 >>>>>>>>>>>>>>>>>>>>>>>>>>>>>>>>>>>>>>>>>>>>>>>>>>>>>>>FOR COMPONENT NO. 01<<<<<<<<<<<<<<<<<<<<<<<<<<<<<<<<<<<<<<<<<<<<<<<<<<<<<<<


                                            -------------------------------------------
                                                      TRANSPORT STEP NO.  550
                                            -------------------------------------------

 TOTAL ELAPSED TIME SINCE BEGINNING OF SIMULATION =   20.26500    M   
 .....................................................................

                     CUMULATIVE MASS BUDGETS AT END OF TRANSPORT STEP  550, TIME STEP    1, STRESS PERIOD    2
                     -----------------------------------------------------------------------------------------

                                                             IN                           OUT
                                                      ----------------             ----------------
                               CONSTANT CONCENTRATION:    0.000000                    0.000000    
                                        CONSTANT HEAD:    0.000000                   -9.867652    
                                                WELLS:    9.867628                    0.000000    
                               MASS STOR (FLOW MODEL):    0.000000                    0.000000    
                                MASS STORAGE (SOLUTE):    40.23372                   -40.23375    
                            ---------------------------------------------------------------------------
                                              [TOTAL]:    50.10135     KG            -50.10140     KG  

                                                          NET (IN - OUT):  -0.5340576E-04
                                                   DISCREPANCY (PERCENT):  -0.1065954E-03
     1 CALLS TO GCG PACKAGE FOR TRANSPORT TIME STEP   551 IN FLOW TIME STEP     1 STRESS PERIOD     2
      3 TOTAL ITERATIONS
     1 CALLS TO GCG PACKAGE FOR TRANSPORT TIME STEP   552 IN FLOW TIME STEP     1 STRESS PERIOD     2
      3 TOTAL ITERATIONS
     1 CALLS TO GCG PACKAGE FOR TRANSPORT TIME STEP   553 IN FLOW TIME STEP     1 STRESS PERIOD     2
      2 TOTAL ITERATIONS



 >>>>>>>>>>>>>>>>>>>>>>>>>>>>>>>>>>>>>>>>>>>>>>>>>>>>>>>FOR COMPONENT NO. 01<<<<<<<<<<<<<<<<<<<<<<<<<<<<<<<<<<<<<<<<<<<<<<<<<<<<<<<


                                            -------------------------------------------
                                                      TRANSPORT STEP NO.  553
                                            -------------------------------------------

 TOTAL ELAPSED TIME SINCE BEGINNING OF SIMULATION =   20.37000    M   
 .....................................................................

                     CUMULATIVE MASS BUDGETS AT END OF TRANSPORT STEP  553, TIME STEP    1, STRESS PERIOD    2
                     -----------------------------------------------------------------------------------------

                                                             IN                           OUT
                                                      ----------------             ----------------
                               CONSTANT CONCENTRATION:    0.000000                    0.000000    
                                        CONSTANT HEAD:    0.000000                   -9.867652    
                                                WELLS:    9.867628                    0.000000    
                               MASS STOR (FLOW MODEL):    0.000000                    0.000000    
                                MASS STORAGE (SOLUTE):    40.23372                   -40.23375    
                            ---------------------------------------------------------------------------
                                              [TOTAL]:    50.10135     KG            -50.10140     KG  

                                                          NET (IN - OUT):  -0.5340576E-04
                                                   DISCREPANCY (PERCENT):  -0.1065954E-03
     1 CALLS TO GCG PACKAGE FOR TRANSPORT TIME STEP   554 IN FLOW TIME STEP     1 STRESS PERIOD     2
      3 TOTAL ITERATIONS
     1 CALLS TO GCG PACKAGE FOR TRANSPORT TIME STEP   555 IN FLOW TIME STEP     1 STRESS PERIOD     2
      3 TOTAL ITERATIONS
     1 CALLS TO GCG PACKAGE FOR TRANSPORT TIME STEP   556 IN FLOW TIME STEP     1 STRESS PERIOD     2
      2 TOTAL ITERATIONS



 >>>>>>>>>>>>>>>>>>>>>>>>>>>>>>>>>>>>>>>>>>>>>>>>>>>>>>>FOR COMPONENT NO. 01<<<<<<<<<<<<<<<<<<<<<<<<<<<<<<<<<<<<<<<<<<<<<<<<<<<<<<<


                                            -------------------------------------------
                                                      TRANSPORT STEP NO.  556
                                            -------------------------------------------

 TOTAL ELAPSED TIME SINCE BEGINNING OF SIMULATION =   20.47500    M   
 .....................................................................

                     CUMULATIVE MASS BUDGETS AT END OF TRANSPORT STEP  556, TIME STEP    1, STRESS PERIOD    2
                     -----------------------------------------------------------------------------------------

                                                             IN                           OUT
                                                      ----------------             ----------------
                               CONSTANT CONCENTRATION:    0.000000                    0.000000    
                                        CONSTANT HEAD:    0.000000                   -9.867652    
                                                WELLS:    9.867628                    0.000000    
                               MASS STOR (FLOW MODEL):    0.000000                    0.000000    
                                MASS STORAGE (SOLUTE):    40.23372                   -40.23375    
                            ---------------------------------------------------------------------------
                                              [TOTAL]:    50.10135     KG            -50.10140     KG  

                                                          NET (IN - OUT):  -0.5340576E-04
                                                   DISCREPANCY (PERCENT):  -0.1065954E-03
     1 CALLS TO GCG PACKAGE FOR TRANSPORT TIME STEP   557 IN FLOW TIME STEP     1 STRESS PERIOD     2
      3 TOTAL ITERATIONS
     1 CALLS TO GCG PACKAGE FOR TRANSPORT TIME STEP   558 IN FLOW TIME STEP     1 STRESS PERIOD     2
      3 TOTAL ITERATIONS
     1 CALLS TO GCG PACKAGE FOR TRANSPORT TIME STEP   559 IN FLOW TIME STEP     1 STRESS PERIOD     2
      2 TOTAL ITERATIONS



 >>>>>>>>>>>>>>>>>>>>>>>>>>>>>>>>>>>>>>>>>>>>>>>>>>>>>>>FOR COMPONENT NO. 01<<<<<<<<<<<<<<<<<<<<<<<<<<<<<<<<<<<<<<<<<<<<<<<<<<<<<<<


                                            -------------------------------------------
                                                      TRANSPORT STEP NO.  559
                                            -------------------------------------------

 TOTAL ELAPSED TIME SINCE BEGINNING OF SIMULATION =   20.58000    M   
 .....................................................................

                     CUMULATIVE MASS BUDGETS AT END OF TRANSPORT STEP  559, TIME STEP    1, STRESS PERIOD    2
                     -----------------------------------------------------------------------------------------

                                                             IN                           OUT
                                                      ----------------             ----------------
                               CONSTANT CONCENTRATION:    0.000000                    0.000000    
                                        CONSTANT HEAD:    0.000000                   -9.867652    
                                                WELLS:    9.867628                    0.000000    
                               MASS STOR (FLOW MODEL):    0.000000                    0.000000    
                                MASS STORAGE (SOLUTE):    40.23372                   -40.23375    
                            ---------------------------------------------------------------------------
                                              [TOTAL]:    50.10135     KG            -50.10140     KG  

                                                          NET (IN - OUT):  -0.5340576E-04
                                                   DISCREPANCY (PERCENT):  -0.1065954E-03
     1 CALLS TO GCG PACKAGE FOR TRANSPORT TIME STEP   560 IN FLOW TIME STEP     1 STRESS PERIOD     2
      3 TOTAL ITERATIONS
     1 CALLS TO GCG PACKAGE FOR TRANSPORT TIME STEP   561 IN FLOW TIME STEP     1 STRESS PERIOD     2
      3 TOTAL ITERATIONS
     1 CALLS TO GCG PACKAGE FOR TRANSPORT TIME STEP   562 IN FLOW TIME STEP     1 STRESS PERIOD     2
      2 TOTAL ITERATIONS



 >>>>>>>>>>>>>>>>>>>>>>>>>>>>>>>>>>>>>>>>>>>>>>>>>>>>>>>FOR COMPONENT NO. 01<<<<<<<<<<<<<<<<<<<<<<<<<<<<<<<<<<<<<<<<<<<<<<<<<<<<<<<


                                            -------------------------------------------
                                                      TRANSPORT STEP NO.  562
                                            -------------------------------------------

 TOTAL ELAPSED TIME SINCE BEGINNING OF SIMULATION =   20.68500    M   
 .....................................................................

                     CUMULATIVE MASS BUDGETS AT END OF TRANSPORT STEP  562, TIME STEP    1, STRESS PERIOD    2
                     -----------------------------------------------------------------------------------------

                                                             IN                           OUT
                                                      ----------------             ----------------
                               CONSTANT CONCENTRATION:    0.000000                    0.000000    
                                        CONSTANT HEAD:    0.000000                   -9.867652    
                                                WELLS:    9.867628                    0.000000    
                               MASS STOR (FLOW MODEL):    0.000000                    0.000000    
                                MASS STORAGE (SOLUTE):    40.23372                   -40.23375    
                            ---------------------------------------------------------------------------
                                              [TOTAL]:    50.10135     KG            -50.10140     KG  

                                                          NET (IN - OUT):  -0.5340576E-04
                                                   DISCREPANCY (PERCENT):  -0.1065954E-03
     1 CALLS TO GCG PACKAGE FOR TRANSPORT TIME STEP   563 IN FLOW TIME STEP     1 STRESS PERIOD     2
      3 TOTAL ITERATIONS
     1 CALLS TO GCG PACKAGE FOR TRANSPORT TIME STEP   564 IN FLOW TIME STEP     1 STRESS PERIOD     2
      3 TOTAL ITERATIONS
     1 CALLS TO GCG PACKAGE FOR TRANSPORT TIME STEP   565 IN FLOW TIME STEP     1 STRESS PERIOD     2
      2 TOTAL ITERATIONS



 >>>>>>>>>>>>>>>>>>>>>>>>>>>>>>>>>>>>>>>>>>>>>>>>>>>>>>>FOR COMPONENT NO. 01<<<<<<<<<<<<<<<<<<<<<<<<<<<<<<<<<<<<<<<<<<<<<<<<<<<<<<<


                                            -------------------------------------------
                                                      TRANSPORT STEP NO.  565
                                            -------------------------------------------

 TOTAL ELAPSED TIME SINCE BEGINNING OF SIMULATION =   20.79000    M   
 .....................................................................

                     CUMULATIVE MASS BUDGETS AT END OF TRANSPORT STEP  565, TIME STEP    1, STRESS PERIOD    2
                     -----------------------------------------------------------------------------------------

                                                             IN                           OUT
                                                      ----------------             ----------------
                               CONSTANT CONCENTRATION:    0.000000                    0.000000    
                                        CONSTANT HEAD:    0.000000                   -9.867652    
                                                WELLS:    9.867628                    0.000000    
                               MASS STOR (FLOW MODEL):    0.000000                    0.000000    
                                MASS STORAGE (SOLUTE):    40.23372                   -40.23375    
                            ---------------------------------------------------------------------------
                                              [TOTAL]:    50.10135     KG            -50.10140     KG  

                                                          NET (IN - OUT):  -0.5340576E-04
                                                   DISCREPANCY (PERCENT):  -0.1065954E-03
     1 CALLS TO GCG PACKAGE FOR TRANSPORT TIME STEP   566 IN FLOW TIME STEP     1 STRESS PERIOD     2
      3 TOTAL ITERATIONS
     1 CALLS TO GCG PACKAGE FOR TRANSPORT TIME STEP   567 IN FLOW TIME STEP     1 STRESS PERIOD     2
      3 TOTAL ITERATIONS
     1 CALLS TO GCG PACKAGE FOR TRANSPORT TIME STEP   568 IN FLOW TIME STEP     1 STRESS PERIOD     2
      2 TOTAL ITERATIONS



 >>>>>>>>>>>>>>>>>>>>>>>>>>>>>>>>>>>>>>>>>>>>>>>>>>>>>>>FOR COMPONENT NO. 01<<<<<<<<<<<<<<<<<<<<<<<<<<<<<<<<<<<<<<<<<<<<<<<<<<<<<<<


                                            -------------------------------------------
                                                      TRANSPORT STEP NO.  568
                                            -------------------------------------------

 TOTAL ELAPSED TIME SINCE BEGINNING OF SIMULATION =   20.89500    M   
 .....................................................................

                     CUMULATIVE MASS BUDGETS AT END OF TRANSPORT STEP  568, TIME STEP    1, STRESS PERIOD    2
                     -----------------------------------------------------------------------------------------

                                                             IN                           OUT
                                                      ----------------             ----------------
                               CONSTANT CONCENTRATION:    0.000000                    0.000000    
                                        CONSTANT HEAD:    0.000000                   -9.867652    
                                                WELLS:    9.867628                    0.000000    
                               MASS STOR (FLOW MODEL):    0.000000                    0.000000    
                                MASS STORAGE (SOLUTE):    40.23372                   -40.23375    
                            ---------------------------------------------------------------------------
                                              [TOTAL]:    50.10135     KG            -50.10140     KG  

                                                          NET (IN - OUT):  -0.5340576E-04
                                                   DISCREPANCY (PERCENT):  -0.1065954E-03
     1 CALLS TO GCG PACKAGE FOR TRANSPORT TIME STEP   569 IN FLOW TIME STEP     1 STRESS PERIOD     2
      3 TOTAL ITERATIONS
     1 CALLS TO GCG PACKAGE FOR TRANSPORT TIME STEP   570 IN FLOW TIME STEP     1 STRESS PERIOD     2
      3 TOTAL ITERATIONS
     1 CALLS TO GCG PACKAGE FOR TRANSPORT TIME STEP   571 IN FLOW TIME STEP     1 STRESS PERIOD     2
      2 TOTAL ITERATIONS
  MAXIMUM CONCENTRATION CHANGES FOR EACH ITERATION:
  MAX. CHANGE LAYER,ROW,COL MAX. CHANGE LAYER,ROW,COL MAX. CHANGE LAYER,ROW,COL MAX. CHANGE LAYER,ROW,COL MAX. CHANGE LAYER,ROW,COL
 ------------------------------------------------------------------------------------------------------------------------------------
   0.8246E-02 (  1,  7, 42)  0.2980E-07 (  1,  3, 41)



 >>>>>>>>>>>>>>>>>>>>>>>>>>>>>>>>>>>>>>>>>>>>>>>>>>>>>>>FOR COMPONENT NO. 01<<<<<<<<<<<<<<<<<<<<<<<<<<<<<<<<<<<<<<<<<<<<<<<<<<<<<<<


                                            -------------------------------------------
                                                      TRANSPORT STEP NO.  571
                                            -------------------------------------------

 TOTAL ELAPSED TIME SINCE BEGINNING OF SIMULATION =   21.00000    M   
 .....................................................................

                     CUMULATIVE MASS BUDGETS AT END OF TRANSPORT STEP  571, TIME STEP    1, STRESS PERIOD    2
                     -----------------------------------------------------------------------------------------

                                                             IN                           OUT
                                                      ----------------             ----------------
                               CONSTANT CONCENTRATION:    0.000000                    0.000000    
                                        CONSTANT HEAD:    0.000000                   -9.867652    
                                                WELLS:    9.867628                    0.000000    
                               MASS STOR (FLOW MODEL):    0.000000                    0.000000    
                                MASS STORAGE (SOLUTE):    40.23372                   -40.23375    
                            ---------------------------------------------------------------------------
                                              [TOTAL]:    50.10135     KG            -50.10140     KG  

                                                          NET (IN - OUT):  -0.5340576E-04
                                                   DISCREPANCY (PERCENT):  -0.1065954E-03
  ----- 
 | M T |
 | 3 D | END OF MODEL OUTPUT
  ----- 
