 LISTING FILE: td4_mt.list
                         UNIT  16

 OPENING mt3d_link.ftl
 FILE TYPE:FTL   UNIT  10

 OPENING td4_mt.btn
 FILE TYPE:BTN   UNIT  31

 OPENING td4_mt.adv
 FILE TYPE:ADV   UNIT  32

 OPENING td4_mt.dsp
 FILE TYPE:DSP   UNIT  33

 OPENING td4_mt.ssm
 FILE TYPE:SSM   UNIT  34

 OPENING td4_mt.gcg
 FILE TYPE:GCG   UNIT  35

                              +++++++++++++++++++++++++++++++++++++++++++++++++++++++++++++++++++++++
                              +                                                                     +
                              +                              MT3D-USGS                              +
                              +             A Modular 3D Multi-Species Transport Model              +
                              +    For Simulation of Advection, Dispersion and Chemical Reactions   +
                              +                of Contaminants in Groundwater Systems               +
                              +                                                                     +
                              +++++++++++++++++++++++++++++++++++++++++++++++++++++++++++++++++++++++

  ----- 
 | M T | ## BTN for MT3DMS, generated by Flopy.                                          
 | 3 D | ##                                                                              
  ----- 
 THE TRANSPORT MODEL CONSISTS OF    20 LAYER(S)   20 ROW(S)   42 COLUMN(S)
 NUMBER OF STRESS PERIOD(S) FOR TRANSPORT SIMULATION =    2
 NUMBER OF ALL COMPONENTS INCLUDED IN SIMULATION =    1
 NUMBER OF MOBILE COMPONENTS INCLUDED IN SIMULATION =    1
 UNIT FOR TIME IS M   ;  UNIT FOR LENGTH IS CM  ;  UNIT FOR MASS IS KG  
 OPTIONAL PACKAGES INCLUDED IN CURRENT SIMULATION:
  o ADV   ON UNIT 32
  o DSP   ON UNIT 33
  o SSM   ON UNIT 34
  o GCG   ON UNIT 35


 BTN1 -- BASIC TRANSPORT PACKAGE, VERSION 1, MAY 2016, INPUT READ FROM UNIT 31

 BTN PACKAGE KEYWORD INPUT: 
 DRYCELL OPTION NOT SET
  DRY CELL BUDGET OMITTED FROM GLOBAL MASS BALANCE SUMMARY

 LAYER NUMBER  AQUIFER TYPE
 ------------  ------------
       1            0
       2            0
       3            0
       4            0
       5            0
       6            0
       7            0
       8            0
       9            0
      10            0
      11            0
      12            0
      13            0
      14            0
      15            0
      16            0
      17            0
      18            0
      19            0
      20            0
                                       WIDTH ALONG ROWS (DELR)  =  0.2329100    
                                       WIDTH ALONG COLS (DELC)  =  0.2388000    
                                       TOP ELEV. OF 1ST LAYER   =   0.000000    
                                       CELL THICKNESS (DZ)      =  0.2329100     FOR LAYER  1
                                       CELL THICKNESS (DZ)      =  0.2329100     FOR LAYER  2
                                       CELL THICKNESS (DZ)      =  0.2329100     FOR LAYER  3
                                       CELL THICKNESS (DZ)      =  0.2329100     FOR LAYER  4
                                       CELL THICKNESS (DZ)      =  0.2329100     FOR LAYER  5
                                       CELL THICKNESS (DZ)      =  0.2329100     FOR LAYER  6
                                       CELL THICKNESS (DZ)      =  0.2329100     FOR LAYER  7
                                       CELL THICKNESS (DZ)      =  0.2329100     FOR LAYER  8
                                       CELL THICKNESS (DZ)      =  0.2329100     FOR LAYER  9
                                       CELL THICKNESS (DZ)      =  0.2329100     FOR LAYER 10
                                       CELL THICKNESS (DZ)      =  0.2329100     FOR LAYER 11
                                       CELL THICKNESS (DZ)      =  0.2329100     FOR LAYER 12
                                       CELL THICKNESS (DZ)      =  0.2329100     FOR LAYER 13
                                       CELL THICKNESS (DZ)      =  0.2329100     FOR LAYER 14
                                       CELL THICKNESS (DZ)      =  0.2329100     FOR LAYER 15
                                       CELL THICKNESS (DZ)      =  0.2329100     FOR LAYER 16
                                       CELL THICKNESS (DZ)      =  0.2329100     FOR LAYER 17
                                       CELL THICKNESS (DZ)      =  0.2329100     FOR LAYER 18
                                       CELL THICKNESS (DZ)      =  0.2329100     FOR LAYER 19
                                       CELL THICKNESS (DZ)      =  0.2329100     FOR LAYER 20
                                       POROSITY                 =  0.2500000     FOR LAYER  1
                                       POROSITY                 =  0.2500000     FOR LAYER  2
                                       POROSITY                 =  0.2500000     FOR LAYER  3
                                       POROSITY                 =  0.2500000     FOR LAYER  4
                                       POROSITY                 =  0.2500000     FOR LAYER  5
                                       POROSITY                 =  0.2500000     FOR LAYER  6
                                       POROSITY                 =  0.2500000     FOR LAYER  7
                                       POROSITY                 =  0.2500000     FOR LAYER  8
                                       POROSITY                 =  0.2500000     FOR LAYER  9
                                       POROSITY                 =  0.2500000     FOR LAYER 10
                                       POROSITY                 =  0.2500000     FOR LAYER 11
                                       POROSITY                 =  0.2500000     FOR LAYER 12
                                       POROSITY                 =  0.2500000     FOR LAYER 13
                                       POROSITY                 =  0.2500000     FOR LAYER 14
                                       POROSITY                 =  0.2500000     FOR LAYER 15
                                       POROSITY                 =  0.2500000     FOR LAYER 16
                                       POROSITY                 =  0.2500000     FOR LAYER 17
                                       POROSITY                 =  0.2500000     FOR LAYER 18
                                       POROSITY                 =  0.2500000     FOR LAYER 19
                                       POROSITY                 =  0.2500000     FOR LAYER 20

                     CONCN. BOUNDARY ARRAY    FOR LAYER  1 READ ON UNIT  31 USING FORMAT: "            (42I10) "
                     ------------------------------------------------------------------------------------------

                     CONCN. BOUNDARY ARRAY    FOR LAYER  2 READ ON UNIT  31 USING FORMAT: "            (42I10) "
                     ------------------------------------------------------------------------------------------

                     CONCN. BOUNDARY ARRAY    FOR LAYER  3 READ ON UNIT  31 USING FORMAT: "            (42I10) "
                     ------------------------------------------------------------------------------------------

                     CONCN. BOUNDARY ARRAY    FOR LAYER  4 READ ON UNIT  31 USING FORMAT: "            (42I10) "
                     ------------------------------------------------------------------------------------------

                     CONCN. BOUNDARY ARRAY    FOR LAYER  5 READ ON UNIT  31 USING FORMAT: "            (42I10) "
                     ------------------------------------------------------------------------------------------

                     CONCN. BOUNDARY ARRAY    FOR LAYER  6 READ ON UNIT  31 USING FORMAT: "            (42I10) "
                     ------------------------------------------------------------------------------------------

                     CONCN. BOUNDARY ARRAY    FOR LAYER  7 READ ON UNIT  31 USING FORMAT: "            (42I10) "
                     ------------------------------------------------------------------------------------------

                     CONCN. BOUNDARY ARRAY    FOR LAYER  8 READ ON UNIT  31 USING FORMAT: "            (42I10) "
                     ------------------------------------------------------------------------------------------

                     CONCN. BOUNDARY ARRAY    FOR LAYER  9 READ ON UNIT  31 USING FORMAT: "            (42I10) "
                     ------------------------------------------------------------------------------------------

                     CONCN. BOUNDARY ARRAY    FOR LAYER 10 READ ON UNIT  31 USING FORMAT: "            (42I10) "
                     ------------------------------------------------------------------------------------------

                     CONCN. BOUNDARY ARRAY    FOR LAYER 11 READ ON UNIT  31 USING FORMAT: "            (42I10) "
                     ------------------------------------------------------------------------------------------

                     CONCN. BOUNDARY ARRAY    FOR LAYER 12 READ ON UNIT  31 USING FORMAT: "            (42I10) "
                     ------------------------------------------------------------------------------------------

                     CONCN. BOUNDARY ARRAY    FOR LAYER 13 READ ON UNIT  31 USING FORMAT: "            (42I10) "
                     ------------------------------------------------------------------------------------------

                     CONCN. BOUNDARY ARRAY    FOR LAYER 14 READ ON UNIT  31 USING FORMAT: "            (42I10) "
                     ------------------------------------------------------------------------------------------

                     CONCN. BOUNDARY ARRAY    FOR LAYER 15 READ ON UNIT  31 USING FORMAT: "            (42I10) "
                     ------------------------------------------------------------------------------------------

                     CONCN. BOUNDARY ARRAY    FOR LAYER 16 READ ON UNIT  31 USING FORMAT: "            (42I10) "
                     ------------------------------------------------------------------------------------------

                     CONCN. BOUNDARY ARRAY    FOR LAYER 17 READ ON UNIT  31 USING FORMAT: "            (42I10) "
                     ------------------------------------------------------------------------------------------

                     CONCN. BOUNDARY ARRAY    FOR LAYER 18 READ ON UNIT  31 USING FORMAT: "            (42I10) "
                     ------------------------------------------------------------------------------------------

                     CONCN. BOUNDARY ARRAY    FOR LAYER 19 READ ON UNIT  31 USING FORMAT: "            (42I10) "
                     ------------------------------------------------------------------------------------------

                     CONCN. BOUNDARY ARRAY    FOR LAYER 20 READ ON UNIT  31 USING FORMAT: "            (42I10) "
                     ------------------------------------------------------------------------------------------
                                       INITIAL CONC.: COMP.  01 =   0.000000     FOR LAYER  1
                                       INITIAL CONC.: COMP.  01 =   0.000000     FOR LAYER  2
                                       INITIAL CONC.: COMP.  01 =   0.000000     FOR LAYER  3
                                       INITIAL CONC.: COMP.  01 =   0.000000     FOR LAYER  4
                                       INITIAL CONC.: COMP.  01 =   0.000000     FOR LAYER  5
                                       INITIAL CONC.: COMP.  01 =   0.000000     FOR LAYER  6
                                       INITIAL CONC.: COMP.  01 =   0.000000     FOR LAYER  7
                                       INITIAL CONC.: COMP.  01 =   0.000000     FOR LAYER  8
                                       INITIAL CONC.: COMP.  01 =   0.000000     FOR LAYER  9
                                       INITIAL CONC.: COMP.  01 =   0.000000     FOR LAYER 10
                                       INITIAL CONC.: COMP.  01 =   0.000000     FOR LAYER 11
                                       INITIAL CONC.: COMP.  01 =   0.000000     FOR LAYER 12
                                       INITIAL CONC.: COMP.  01 =   0.000000     FOR LAYER 13
                                       INITIAL CONC.: COMP.  01 =   0.000000     FOR LAYER 14
                                       INITIAL CONC.: COMP.  01 =   0.000000     FOR LAYER 15
                                       INITIAL CONC.: COMP.  01 =   0.000000     FOR LAYER 16
                                       INITIAL CONC.: COMP.  01 =   0.000000     FOR LAYER 17
                                       INITIAL CONC.: COMP.  01 =   0.000000     FOR LAYER 18
                                       INITIAL CONC.: COMP.  01 =   0.000000     FOR LAYER 19
                                       INITIAL CONC.: COMP.  01 =   0.000000     FOR LAYER 20

 VALUE INDICATING INACTIVE CONCENTRATION CELLS =   0.1000000E+31
 MINIMUM SATURATED THICKNESS [THKMIN] ALLOWED =  0.0100000 OF TOTAL CELL THICKNESS


 OUTPUT CONTROL OPTIONS
 ----------------------

 DO NOT PRINT CELL CONCENTRATION
 DO NOT PRINT PARTICLE NUMBER IN EACH CELL
 DO NOT PRINT RETARDATION FACTOR
 DO NOT PRINT DISPERSION COEFFICIENT
 SAVE DISSOLVED PHASE CONCENTRATIONS IN UNFORMATTED FILES [MT3Dnnn.UCN]
  FOR EACH SPECIES ON UNITS 201 AND ABOVE

 NUMBER OF TIMES AT WHICH SIMULATION RESULTS ARE SAVED =  150
 TOTAL ELAPSED TIMES AT WHICH SIMULATION RESULTS ARE SAVED: 
    0.0000      0.60667       1.2133       1.8200       2.4267       3.0333       3.6400       4.2467    
    4.8533       5.4600       6.0667       6.6733       7.2800       7.8867       8.4933       9.1000    
    9.7067       10.313       10.920       11.527       12.133       12.740       13.347       13.953    
    14.560       15.167       15.773       16.380       16.987       17.593       18.200       18.807    
    19.413       20.020       20.627       21.233       21.840       22.447       23.053       23.660    
    24.267       24.873       25.480       26.087       26.693       27.300       27.907       28.513    
    29.120       29.727       30.333       30.940       31.547       32.153       32.760       33.367    
    33.973       34.580       35.187       35.793       36.400       37.007       37.613       38.220    
    38.827       39.433       40.040       40.647       41.253       41.860       42.467       43.073    
    43.680       44.287       44.893       45.500       46.107       46.713       47.320       47.927    
    48.533       49.140       49.747       50.353       50.960       51.567       52.173       52.780    
    53.387       53.993       54.600       55.207       55.813       56.420       57.027       57.633    
    58.240       58.847       59.453       60.060       60.667       61.273       61.880       62.487    
    63.093       63.700       64.307       64.913       65.520       66.127       66.733       67.340    
    67.947       68.553       69.160       69.767       70.373       70.980       71.587       72.193    
    72.800       73.407       74.013       74.620       75.227       75.833       76.440       77.047    
    77.653       78.260       78.867       79.473       80.080       80.687       81.293       81.900    
    82.507       83.113       83.720       84.327       84.933       85.540       86.147       86.753    
    87.360       87.967       88.573       89.180       89.787       90.393    

 NUMBER OF OBSERVATION POINTS =    0

 SAVE ONE-LINE SUMMARY OF MASS BUDGETS IN FILES [MT3Dnnn.MAS]
  FOR EACH SPECIES ON UNITS 601 AND ABOVE, EVERY  1 TRANSPORT STEPS

 MAXIMUM LENGTH ALONG THE X (J) AXIS =   9.782224    
 MAXIMUM LENGTH ALONG THE Y (I) AXIS =   4.776000    
 MAXIMUM LENGTH ALONG THE Z (K) AXIS =   4.658200    
 FMI1 -- FLOW MODEL INTERFACE PACKAGE, VERSION 1, MAY 2016, INPUT READ FROM UNIT 10
 FLOW MODEL IS STEADY-STATE
 FLOW MODEL CONTAINS CONSTANT-HEAD CELLS


 ADV1 -- ADVECTION PACKAGE, VERSION 1, MAY 2016, INPUT READ FROM UNIT 32
 ADVECTION IS SOLVED WITH THE ULTIMATE SCHEME
 COURANT NUMBER ALLOWED IN SOLVING THE ADVECTION TERM = 0.750    


 ADVECTION SOLUTION OPTIONS
 --------------------------

 ADVECTION IS SOLVED WITH THE ULTIMATE SCHEME
 COURANT NUMBER ALLOWED IN SOLVING THE ADVECTION TERM = 0.750    

 DSP1 -- DISPERSION PACKAGE, VERSION 1, MAY 2016, INPUT READ FROM UNIT 33


 DISPERSION INPUT PARAMETERS
 ---------------------------

                                       LONG. DISPERSIVITY (AL)  =  0.5000000E-01 FOR LAYER  1
                                       LONG. DISPERSIVITY (AL)  =  0.5000000E-01 FOR LAYER  2
                                       LONG. DISPERSIVITY (AL)  =  0.5000000E-01 FOR LAYER  3
                                       LONG. DISPERSIVITY (AL)  =  0.5000000E-01 FOR LAYER  4
                                       LONG. DISPERSIVITY (AL)  =  0.5000000E-01 FOR LAYER  5
                                       LONG. DISPERSIVITY (AL)  =  0.5000000E-01 FOR LAYER  6
                                       LONG. DISPERSIVITY (AL)  =  0.5000000E-01 FOR LAYER  7
                                       LONG. DISPERSIVITY (AL)  =  0.5000000E-01 FOR LAYER  8
                                       LONG. DISPERSIVITY (AL)  =  0.5000000E-01 FOR LAYER  9
                                       LONG. DISPERSIVITY (AL)  =  0.5000000E-01 FOR LAYER 10
                                       LONG. DISPERSIVITY (AL)  =  0.5000000E-01 FOR LAYER 11
                                       LONG. DISPERSIVITY (AL)  =  0.5000000E-01 FOR LAYER 12
                                       LONG. DISPERSIVITY (AL)  =  0.5000000E-01 FOR LAYER 13
                                       LONG. DISPERSIVITY (AL)  =  0.5000000E-01 FOR LAYER 14
                                       LONG. DISPERSIVITY (AL)  =  0.5000000E-01 FOR LAYER 15
                                       LONG. DISPERSIVITY (AL)  =  0.5000000E-01 FOR LAYER 16
                                       LONG. DISPERSIVITY (AL)  =  0.5000000E-01 FOR LAYER 17
                                       LONG. DISPERSIVITY (AL)  =  0.5000000E-01 FOR LAYER 18
                                       LONG. DISPERSIVITY (AL)  =  0.5000000E-01 FOR LAYER 19
                                       LONG. DISPERSIVITY (AL)  =  0.5000000E-01 FOR LAYER 20
                                       H. TRANS./LONG. DISP.    =  0.3000000    
                                       V. TRANS./LONG. DISP.    =  0.1000000E-01
                                       DIFFUSION COEFFICIENT    =  0.1000000E-08

 SSM1 -- SINK & SOURCE MIXING PACKAGE, VERSION 1, MAY 2016, INPUT READ FROM UNIT 34
 HEADER LINE OF THE SSM PACKAGE INPUT FILE:
  T F F F F F F F F F F F F F F F                                        
 MAJOR STRESS COMPONENTS PRESENT IN THE FLOW MODEL:
  o WELL [WEL]
 MAXIMUM NUMBER OF POINT SINKS/SOURCES =     648

 GCG1 -- GENERALIZED CONJUGATE GRADIENT SOLVER PACKAGE, VERSION 1, OCTOBER 2010 INPUT READ FROM UNIT 35
 MAXIMUM OF    1 OUTER ITERATIONS
        AND   50 INNER ITERATIONS ALLOWED FOR CLOSURE
 THE PRECONDITIONING TYPE SELECTED IS MODIFIED INCOMPLETE CHOLESKY (MIC).
 DISPERSION CROSS TERMS LUMPED INTO RIGHT-HAND-SIDE



                                               SOLUTION BY THE GENERALIZED CONJUGATE GRADIENT METHOD
                                               -----------------------------------------------------
                                     MAXIMUM OUTER ITERATIONS ALLOWED FOR CLOSURE =        1
                                     MAXIMUM INNER ITERATIONS ALLOWED FOR CLOSURE =       50
                                                    PRECONDITIONING TYPE SELECTED =    3
                                                           ACCELERATION PARAMETER =     1.0000    
                                       CONCENTRATION CHANGE CRITERION FOR CLOSURE =    0.10000E-04
                                       GCG CONCENTRATION CHANGE PRINTOUT INTERVAL =      999


                                   ++++++++++++++++++++++++++++++++++++++++++++++++++++++++++++++
                                                       STRESS PERIOD NO.  001
                                   ++++++++++++++++++++++++++++++++++++++++++++++++++++++++++++++


 LENGTH OF CURRENT STRESS PERIOD =   1.000000    
 NUMBER OF TIME STEPS FOR CURRENT STRESS PERIOD =    1
 TIME STEP MULTIPLIER USED IN FLOW SOLUTION =   1.000000    

 ***Type of Transport Simulation is TRANSIENT

 USER-SPECIFIED TRANSPORT STEPSIZE =   0.000000    M   
 MAXIMUM NUMBER OF TRANSPORT STEPS ALLOWED  IN ONE FLOW TIME STEP =     50000
 MULTIPLIER FOR SUCCESSIVE TRANSPORT STEPS  [USED IN IMPLICIT SCHEMES] =     1.000
 MAXIMUM TRANSPORT STEP SIZE  [USED IN IMPLICIT SCHEMES] =   0.000000    M   

       NO    LAYER   ROW   COLUMN   CONCENTRATION       TYPE            COMPONENT
       1       1       8       1       1.000000         WELL                1
       2       1       9       1       1.000000         WELL                1
       3       1      10       1       1.000000         WELL                1
       4       1      11       1       1.000000         WELL                1
       5       1      12       1       1.000000         WELL                1
       6       1      13       1       1.000000         WELL                1
       7       2       6       1       1.000000         WELL                1
       8       2       7       1       1.000000         WELL                1
       9       2       8       1       1.000000         WELL                1
      10       2       9       1       1.000000         WELL                1
      11       2      10       1       1.000000         WELL                1
      12       2      11       1       1.000000         WELL                1
      13       2      12       1       1.000000         WELL                1
      14       2      13       1       1.000000         WELL                1
      15       2      14       1       1.000000         WELL                1
      16       2      15       1       1.000000         WELL                1
      17       3       4       1       1.000000         WELL                1
      18       3       5       1       1.000000         WELL                1
      19       3       6       1       1.000000         WELL                1
      20       3       7       1       1.000000         WELL                1
      21       3       8       1       1.000000         WELL                1
      22       3       9       1       1.000000         WELL                1
      23       3      10       1       1.000000         WELL                1
      24       3      11       1       1.000000         WELL                1
      25       3      12       1       1.000000         WELL                1
      26       3      13       1       1.000000         WELL                1
      27       3      14       1       1.000000         WELL                1
      28       3      15       1       1.000000         WELL                1
      29       3      16       1       1.000000         WELL                1
      30       3      17       1       1.000000         WELL                1
      31       4       3       1       1.000000         WELL                1
      32       4       4       1       1.000000         WELL                1
      33       4       5       1       1.000000         WELL                1
      34       4       6       1       1.000000         WELL                1
      35       4       7       1       1.000000         WELL                1
      36       4       8       1       1.000000         WELL                1
      37       4       9       1       1.000000         WELL                1
      38       4      10       1       1.000000         WELL                1
      39       4      11       1       1.000000         WELL                1
      40       4      12       1       1.000000         WELL                1
      41       4      13       1       1.000000         WELL                1
      42       4      14       1       1.000000         WELL                1
      43       4      15       1       1.000000         WELL                1
      44       4      16       1       1.000000         WELL                1
      45       4      17       1       1.000000         WELL                1
      46       4      18       1       1.000000         WELL                1
      47       5       2       1       1.000000         WELL                1
      48       5       3       1       1.000000         WELL                1
      49       5       4       1       1.000000         WELL                1
      50       5       5       1       1.000000         WELL                1
      51       5       6       1       1.000000         WELL                1
      52       5       7       1       1.000000         WELL                1
      53       5       8       1       1.000000         WELL                1
      54       5       9       1       1.000000         WELL                1
      55       5      10       1       1.000000         WELL                1
      56       5      11       1       1.000000         WELL                1
      57       5      12       1       1.000000         WELL                1
      58       5      13       1       1.000000         WELL                1
      59       5      14       1       1.000000         WELL                1
      60       5      15       1       1.000000         WELL                1
      61       5      16       1       1.000000         WELL                1
      62       5      17       1       1.000000         WELL                1
      63       5      18       1       1.000000         WELL                1
      64       5      19       1       1.000000         WELL                1
      65       6       2       1       1.000000         WELL                1
      66       6       3       1       1.000000         WELL                1
      67       6       4       1       1.000000         WELL                1
      68       6       5       1       1.000000         WELL                1
      69       6       6       1       1.000000         WELL                1
      70       6       7       1       1.000000         WELL                1
      71       6       8       1       1.000000         WELL                1
      72       6       9       1       1.000000         WELL                1
      73       6      10       1       1.000000         WELL                1
      74       6      11       1       1.000000         WELL                1
      75       6      12       1       1.000000         WELL                1
      76       6      13       1       1.000000         WELL                1
      77       6      14       1       1.000000         WELL                1
      78       6      15       1       1.000000         WELL                1
      79       6      16       1       1.000000         WELL                1
      80       6      17       1       1.000000         WELL                1
      81       6      18       1       1.000000         WELL                1
      82       6      19       1       1.000000         WELL                1
      83       7       1       1       1.000000         WELL                1
      84       7       2       1       1.000000         WELL                1
      85       7       3       1       1.000000         WELL                1
      86       7       4       1       1.000000         WELL                1
      87       7       5       1       1.000000         WELL                1
      88       7       6       1       1.000000         WELL                1
      89       7       7       1       1.000000         WELL                1
      90       7       8       1       1.000000         WELL                1
      91       7       9       1       1.000000         WELL                1
      92       7      10       1       1.000000         WELL                1
      93       7      11       1       1.000000         WELL                1
      94       7      12       1       1.000000         WELL                1
      95       7      13       1       1.000000         WELL                1
      96       7      14       1       1.000000         WELL                1
      97       7      15       1       1.000000         WELL                1
      98       7      16       1       1.000000         WELL                1
      99       7      17       1       1.000000         WELL                1
     100       7      18       1       1.000000         WELL                1
     101       7      19       1       1.000000         WELL                1
     102       7      20       1       1.000000         WELL                1
     103       8       1       1       1.000000         WELL                1
     104       8       2       1       1.000000         WELL                1
     105       8       3       1       1.000000         WELL                1
     106       8       4       1       1.000000         WELL                1
     107       8       5       1       1.000000         WELL                1
     108       8       6       1       1.000000         WELL                1
     109       8       7       1       1.000000         WELL                1
     110       8       8       1       1.000000         WELL                1
     111       8       9       1       1.000000         WELL                1
     112       8      10       1       1.000000         WELL                1
     113       8      11       1       1.000000         WELL                1
     114       8      12       1       1.000000         WELL                1
     115       8      13       1       1.000000         WELL                1
     116       8      14       1       1.000000         WELL                1
     117       8      15       1       1.000000         WELL                1
     118       8      16       1       1.000000         WELL                1
     119       8      17       1       1.000000         WELL                1
     120       8      18       1       1.000000         WELL                1
     121       8      19       1       1.000000         WELL                1
     122       8      20       1       1.000000         WELL                1
     123       9       1       1       1.000000         WELL                1
     124       9       2       1       1.000000         WELL                1
     125       9       3       1       1.000000         WELL                1
     126       9       4       1       1.000000         WELL                1
     127       9       5       1       1.000000         WELL                1
     128       9       6       1       1.000000         WELL                1
     129       9       7       1       1.000000         WELL                1
     130       9       8       1       1.000000         WELL                1
     131       9       9       1       1.000000         WELL                1
     132       9      10       1       1.000000         WELL                1
     133       9      11       1       1.000000         WELL                1
     134       9      12       1       1.000000         WELL                1
     135       9      13       1       1.000000         WELL                1
     136       9      14       1       1.000000         WELL                1
     137       9      15       1       1.000000         WELL                1
     138       9      16       1       1.000000         WELL                1
     139       9      17       1       1.000000         WELL                1
     140       9      18       1       1.000000         WELL                1
     141       9      19       1       1.000000         WELL                1
     142       9      20       1       1.000000         WELL                1
     143      10       1       1       1.000000         WELL                1
     144      10       2       1       1.000000         WELL                1
     145      10       3       1       1.000000         WELL                1
     146      10       4       1       1.000000         WELL                1
     147      10       5       1       1.000000         WELL                1
     148      10       6       1       1.000000         WELL                1
     149      10       7       1       1.000000         WELL                1
     150      10       8       1       1.000000         WELL                1
     151      10       9       1       1.000000         WELL                1
     152      10      10       1       1.000000         WELL                1
     153      10      11       1       1.000000         WELL                1
     154      10      12       1       1.000000         WELL                1
     155      10      13       1       1.000000         WELL                1
     156      10      14       1       1.000000         WELL                1
     157      10      15       1       1.000000         WELL                1
     158      10      16       1       1.000000         WELL                1
     159      10      17       1       1.000000         WELL                1
     160      10      18       1       1.000000         WELL                1
     161      10      19       1       1.000000         WELL                1
     162      10      20       1       1.000000         WELL                1
     163      11       1       1       1.000000         WELL                1
     164      11       2       1       1.000000         WELL                1
     165      11       3       1       1.000000         WELL                1
     166      11       4       1       1.000000         WELL                1
     167      11       5       1       1.000000         WELL                1
     168      11       6       1       1.000000         WELL                1
     169      11       7       1       1.000000         WELL                1
     170      11       8       1       1.000000         WELL                1
     171      11       9       1       1.000000         WELL                1
     172      11      10       1       1.000000         WELL                1
     173      11      11       1       1.000000         WELL                1
     174      11      12       1       1.000000         WELL                1
     175      11      13       1       1.000000         WELL                1
     176      11      14       1       1.000000         WELL                1
     177      11      15       1       1.000000         WELL                1
     178      11      16       1       1.000000         WELL                1
     179      11      17       1       1.000000         WELL                1
     180      11      18       1       1.000000         WELL                1
     181      11      19       1       1.000000         WELL                1
     182      11      20       1       1.000000         WELL                1
     183      12       1       1       1.000000         WELL                1
     184      12       2       1       1.000000         WELL                1
     185      12       3       1       1.000000         WELL                1
     186      12       4       1       1.000000         WELL                1
     187      12       5       1       1.000000         WELL                1
     188      12       6       1       1.000000         WELL                1
     189      12       7       1       1.000000         WELL                1
     190      12       8       1       1.000000         WELL                1
     191      12       9       1       1.000000         WELL                1
     192      12      10       1       1.000000         WELL                1
     193      12      11       1       1.000000         WELL                1
     194      12      12       1       1.000000         WELL                1
     195      12      13       1       1.000000         WELL                1
     196      12      14       1       1.000000         WELL                1
     197      12      15       1       1.000000         WELL                1
     198      12      16       1       1.000000         WELL                1
     199      12      17       1       1.000000         WELL                1
     200      12      18       1       1.000000         WELL                1
     201      12      19       1       1.000000         WELL                1
     202      12      20       1       1.000000         WELL                1
     203      13       1       1       1.000000         WELL                1
     204      13       2       1       1.000000         WELL                1
     205      13       3       1       1.000000         WELL                1
     206      13       4       1       1.000000         WELL                1
     207      13       5       1       1.000000         WELL                1
     208      13       6       1       1.000000         WELL                1
     209      13       7       1       1.000000         WELL                1
     210      13       8       1       1.000000         WELL                1
     211      13       9       1       1.000000         WELL                1
     212      13      10       1       1.000000         WELL                1
     213      13      11       1       1.000000         WELL                1
     214      13      12       1       1.000000         WELL                1
     215      13      13       1       1.000000         WELL                1
     216      13      14       1       1.000000         WELL                1
     217      13      15       1       1.000000         WELL                1
     218      13      16       1       1.000000         WELL                1
     219      13      17       1       1.000000         WELL                1
     220      13      18       1       1.000000         WELL                1
     221      13      19       1       1.000000         WELL                1
     222      13      20       1       1.000000         WELL                1
     223      14       1       1       1.000000         WELL                1
     224      14       2       1       1.000000         WELL                1
     225      14       3       1       1.000000         WELL                1
     226      14       4       1       1.000000         WELL                1
     227      14       5       1       1.000000         WELL                1
     228      14       6       1       1.000000         WELL                1
     229      14       7       1       1.000000         WELL                1
     230      14       8       1       1.000000         WELL                1
     231      14       9       1       1.000000         WELL                1
     232      14      10       1       1.000000         WELL                1
     233      14      11       1       1.000000         WELL                1
     234      14      12       1       1.000000         WELL                1
     235      14      13       1       1.000000         WELL                1
     236      14      14       1       1.000000         WELL                1
     237      14      15       1       1.000000         WELL                1
     238      14      16       1       1.000000         WELL                1
     239      14      17       1       1.000000         WELL                1
     240      14      18       1       1.000000         WELL                1
     241      14      19       1       1.000000         WELL                1
     242      14      20       1       1.000000         WELL                1
     243      15       2       1       1.000000         WELL                1
     244      15       3       1       1.000000         WELL                1
     245      15       4       1       1.000000         WELL                1
     246      15       5       1       1.000000         WELL                1
     247      15       6       1       1.000000         WELL                1
     248      15       7       1       1.000000         WELL                1
     249      15       8       1       1.000000         WELL                1
     250      15       9       1       1.000000         WELL                1
     251      15      10       1       1.000000         WELL                1
     252      15      11       1       1.000000         WELL                1
     253      15      12       1       1.000000         WELL                1
     254      15      13       1       1.000000         WELL                1
     255      15      14       1       1.000000         WELL                1
     256      15      15       1       1.000000         WELL                1
     257      15      16       1       1.000000         WELL                1
     258      15      17       1       1.000000         WELL                1
     259      15      18       1       1.000000         WELL                1
     260      15      19       1       1.000000         WELL                1
     261      16       2       1       1.000000         WELL                1
     262      16       3       1       1.000000         WELL                1
     263      16       4       1       1.000000         WELL                1
     264      16       5       1       1.000000         WELL                1
     265      16       6       1       1.000000         WELL                1
     266      16       7       1       1.000000         WELL                1
     267      16       8       1       1.000000         WELL                1
     268      16       9       1       1.000000         WELL                1
     269      16      10       1       1.000000         WELL                1
     270      16      11       1       1.000000         WELL                1
     271      16      12       1       1.000000         WELL                1
     272      16      13       1       1.000000         WELL                1
     273      16      14       1       1.000000         WELL                1
     274      16      15       1       1.000000         WELL                1
     275      16      16       1       1.000000         WELL                1
     276      16      17       1       1.000000         WELL                1
     277      16      18       1       1.000000         WELL                1
     278      16      19       1       1.000000         WELL                1
     279      17       3       1       1.000000         WELL                1
     280      17       4       1       1.000000         WELL                1
     281      17       5       1       1.000000         WELL                1
     282      17       6       1       1.000000         WELL                1
     283      17       7       1       1.000000         WELL                1
     284      17       8       1       1.000000         WELL                1
     285      17       9       1       1.000000         WELL                1
     286      17      10       1       1.000000         WELL                1
     287      17      11       1       1.000000         WELL                1
     288      17      12       1       1.000000         WELL                1
     289      17      13       1       1.000000         WELL                1
     290      17      14       1       1.000000         WELL                1
     291      17      15       1       1.000000         WELL                1
     292      17      16       1       1.000000         WELL                1
     293      17      17       1       1.000000         WELL                1
     294      17      18       1       1.000000         WELL                1
     295      18       4       1       1.000000         WELL                1
     296      18       5       1       1.000000         WELL                1
     297      18       6       1       1.000000         WELL                1
     298      18       7       1       1.000000         WELL                1
     299      18       8       1       1.000000         WELL                1
     300      18       9       1       1.000000         WELL                1
     301      18      10       1       1.000000         WELL                1
     302      18      11       1       1.000000         WELL                1
     303      18      12       1       1.000000         WELL                1
     304      18      13       1       1.000000         WELL                1
     305      18      14       1       1.000000         WELL                1
     306      18      15       1       1.000000         WELL                1
     307      18      16       1       1.000000         WELL                1
     308      18      17       1       1.000000         WELL                1
     309      19       6       1       1.000000         WELL                1
     310      19       7       1       1.000000         WELL                1
     311      19       8       1       1.000000         WELL                1
     312      19       9       1       1.000000         WELL                1
     313      19      10       1       1.000000         WELL                1
     314      19      11       1       1.000000         WELL                1
     315      19      12       1       1.000000         WELL                1
     316      19      13       1       1.000000         WELL                1
     317      19      14       1       1.000000         WELL                1
     318      19      15       1       1.000000         WELL                1
     319      20       8       1       1.000000         WELL                1
     320      20       9       1       1.000000         WELL                1
     321      20      10       1       1.000000         WELL                1
     322      20      11       1       1.000000         WELL                1
     323      20      12       1       1.000000         WELL                1
     324      20      13       1       1.000000         WELL                1


                                          ================================================
                                                         TIME STEP NO.  001
                                          ================================================

 FROM TIME =   0.0000     TO    1.0000    


                    "THKSAT          " FLOW TERMS FOR TIME STEP  1, STRESS PERIOD  1 READ UNFORMATTED ON UNIT 10
                    --------------------------------------------------------------------------------------------

                    "QXX             " FLOW TERMS FOR TIME STEP  1, STRESS PERIOD  1 READ UNFORMATTED ON UNIT 10
                    --------------------------------------------------------------------------------------------

                    "QYY             " FLOW TERMS FOR TIME STEP  1, STRESS PERIOD  1 READ UNFORMATTED ON UNIT 10
                    --------------------------------------------------------------------------------------------

                    "QZZ             " FLOW TERMS FOR TIME STEP  1, STRESS PERIOD  1 READ UNFORMATTED ON UNIT 10
                    --------------------------------------------------------------------------------------------

 MAXIMUM STEPSIZE DURING WHICH ANY PARTICLE CANNOT MOVE MORE THAN ONE CELL
 = 0.4630    (WHEN MIN. R.F.=1)  AT K=   3, I=  14, J=  41

 MAXIMUM STEPSIZE WHICH MEETS STABILITY CRITERION OF THE ADVECTION TERM
 (FOR PURE FINITE-DIFFERENCE OPTION, MIXELM=0) 
 = 0.4552    (WHEN MIN. R.F.=1)  AT K=   3, I=  14, J=  41

                    "CNH             " FLOW TERMS FOR TIME STEP  1, STRESS PERIOD  1 READ UNFORMATTED ON UNIT 10
                    --------------------------------------------------------------------------------------------

                    "WEL             " FLOW TERMS FOR TIME STEP  1, STRESS PERIOD  1 READ UNFORMATTED ON UNIT 10
                    --------------------------------------------------------------------------------------------


 TOTAL NUMBER OF POINT SOURCES/SINKS PRESENT IN THE FLOW MODEL =   648

 MAXIMUM STEPSIZE WHICH MEETS STABILITY CRITERION OF THE SINK & SOURCE TERM
 = 0.6050    (WHEN MIN. R.F.=1)  AT K=   1, I=   8, J=   1

 MAXIMUM STEPSIZE WHICH MEETS STABILITY CRITERION OF THE DISPERSION TERM
 = 0.8334    (WHEN MIN. R.F.=1)  AT K=   3, I=  14, J=  41



 >>>>>>>>>>>>>>>>>>>>>>>>>>>>>>>>>>>>>>>>>>>>>>>>>>>>>>>FOR COMPONENT NO. 01<<<<<<<<<<<<<<<<<<<<<<<<<<<<<<<<<<<<<<<<<<<<<<<<<<<<<<<


                                            -------------------------------------------
                                                      TRANSPORT STEP NO.    1
                                            -------------------------------------------

 TOTAL ELAPSED TIME SINCE BEGINNING OF SIMULATION =   0.000000    M   
 .....................................................................

                     CUMULATIVE MASS BUDGETS AT END OF TRANSPORT STEP    1, TIME STEP    1, STRESS PERIOD    1
                     -----------------------------------------------------------------------------------------

                                                             IN                           OUT
                                                      ----------------             ----------------
                               CONSTANT CONCENTRATION:    0.000000                    0.000000    
                                        CONSTANT HEAD:    0.000000                    0.000000    
                                                WELLS:    0.000000                    0.000000    
                               MASS STOR (FLOW MODEL):    0.000000                    0.000000    
                                MASS STORAGE (SOLUTE):    0.000000                    0.000000    
                            ---------------------------------------------------------------------------
                                              [TOTAL]:    0.000000     KG             0.000000     KG  

                                                          NET (IN - OUT):    0.000000    
                                                   DISCREPANCY (PERCENT):    0.000000    
     1 CALLS TO GCG PACKAGE FOR TRANSPORT TIME STEP     2 IN FLOW TIME STEP     1 STRESS PERIOD     1
      3 TOTAL ITERATIONS
     1 CALLS TO GCG PACKAGE FOR TRANSPORT TIME STEP     3 IN FLOW TIME STEP     1 STRESS PERIOD     1
      3 TOTAL ITERATIONS



 >>>>>>>>>>>>>>>>>>>>>>>>>>>>>>>>>>>>>>>>>>>>>>>>>>>>>>>FOR COMPONENT NO. 01<<<<<<<<<<<<<<<<<<<<<<<<<<<<<<<<<<<<<<<<<<<<<<<<<<<<<<<


                                            -------------------------------------------
                                                      TRANSPORT STEP NO.    3
                                            -------------------------------------------

 TOTAL ELAPSED TIME SINCE BEGINNING OF SIMULATION =  0.6066700    M   
 .....................................................................

                     CUMULATIVE MASS BUDGETS AT END OF TRANSPORT STEP    3, TIME STEP    1, STRESS PERIOD    1
                     -----------------------------------------------------------------------------------------

                                                             IN                           OUT
                                                      ----------------             ----------------
                               CONSTANT CONCENTRATION:    0.000000                    0.000000    
                                        CONSTANT HEAD:    0.000000                    0.000000    
                                                WELLS:    1.052206                    0.000000    
                               MASS STOR (FLOW MODEL):    0.000000                    0.000000    
                                MASS STORAGE (SOLUTE):    0.000000                   -1.052199    
                            ---------------------------------------------------------------------------
                                              [TOTAL]:    1.052206     KG            -1.052199     KG  

                                                          NET (IN - OUT):   0.6914139E-05
                                                   DISCREPANCY (PERCENT):   0.6571110E-03
     1 CALLS TO GCG PACKAGE FOR TRANSPORT TIME STEP     4 IN FLOW TIME STEP     1 STRESS PERIOD     1
      4 TOTAL ITERATIONS
     1 CALLS TO GCG PACKAGE FOR TRANSPORT TIME STEP     5 IN FLOW TIME STEP     1 STRESS PERIOD     1
      3 TOTAL ITERATIONS
  MAXIMUM CONCENTRATION CHANGES FOR EACH ITERATION:
  MAX. CHANGE LAYER,ROW,COL MAX. CHANGE LAYER,ROW,COL MAX. CHANGE LAYER,ROW,COL MAX. CHANGE LAYER,ROW,COL MAX. CHANGE LAYER,ROW,COL
 ------------------------------------------------------------------------------------------------------------------------------------
   0.1081     (  2, 14,  1)  0.1699E-04 ( 13, 14,  2)  0.1192E-06 (  1,  8,  1)



 >>>>>>>>>>>>>>>>>>>>>>>>>>>>>>>>>>>>>>>>>>>>>>>>>>>>>>>FOR COMPONENT NO. 01<<<<<<<<<<<<<<<<<<<<<<<<<<<<<<<<<<<<<<<<<<<<<<<<<<<<<<<


                                            -------------------------------------------
                                                      TRANSPORT STEP NO.    5
                                            -------------------------------------------

 TOTAL ELAPSED TIME SINCE BEGINNING OF SIMULATION =   1.000000    M   
 .....................................................................

                     CUMULATIVE MASS BUDGETS AT END OF TRANSPORT STEP    5, TIME STEP    1, STRESS PERIOD    1
                     -----------------------------------------------------------------------------------------

                                                             IN                           OUT
                                                      ----------------             ----------------
                               CONSTANT CONCENTRATION:    0.000000                    0.000000    
                                        CONSTANT HEAD:    0.000000                    0.000000    
                                                WELLS:    1.734396                    0.000000    
                               MASS STOR (FLOW MODEL):    0.000000                    0.000000    
                                MASS STORAGE (SOLUTE):    0.000000                   -1.734384    
                            ---------------------------------------------------------------------------
                                              [TOTAL]:    1.734396     KG            -1.734384     KG  

                                                          NET (IN - OUT):   0.1108646E-04
                                                   DISCREPANCY (PERCENT):   0.6392140E-03


                                   ++++++++++++++++++++++++++++++++++++++++++++++++++++++++++++++
                                                       STRESS PERIOD NO.  002
                                   ++++++++++++++++++++++++++++++++++++++++++++++++++++++++++++++


 LENGTH OF CURRENT STRESS PERIOD =   90.00000    
 NUMBER OF TIME STEPS FOR CURRENT STRESS PERIOD =    1
 TIME STEP MULTIPLIER USED IN FLOW SOLUTION =   1.000000    

 ***Type of Transport Simulation is TRANSIENT

 USER-SPECIFIED TRANSPORT STEPSIZE =   0.000000    M   
 MAXIMUM NUMBER OF TRANSPORT STEPS ALLOWED  IN ONE FLOW TIME STEP =     50000
 MULTIPLIER FOR SUCCESSIVE TRANSPORT STEPS  [USED IN IMPLICIT SCHEMES] =     1.000
 MAXIMUM TRANSPORT STEP SIZE  [USED IN IMPLICIT SCHEMES] =   0.000000    M   

       NO    LAYER   ROW   COLUMN   CONCENTRATION       TYPE            COMPONENT


                                          ================================================
                                                         TIME STEP NO.  001
                                          ================================================

 FROM TIME =   1.0000     TO    91.000    


                    "THKSAT          " FLOW TERMS FOR TIME STEP  1, STRESS PERIOD  2 READ UNFORMATTED ON UNIT 10
                    --------------------------------------------------------------------------------------------

                    "QXX             " FLOW TERMS FOR TIME STEP  1, STRESS PERIOD  2 READ UNFORMATTED ON UNIT 10
                    --------------------------------------------------------------------------------------------

                    "QYY             " FLOW TERMS FOR TIME STEP  1, STRESS PERIOD  2 READ UNFORMATTED ON UNIT 10
                    --------------------------------------------------------------------------------------------

                    "QZZ             " FLOW TERMS FOR TIME STEP  1, STRESS PERIOD  2 READ UNFORMATTED ON UNIT 10
                    --------------------------------------------------------------------------------------------

 MAXIMUM STEPSIZE DURING WHICH ANY PARTICLE CANNOT MOVE MORE THAN ONE CELL
 = 0.4630    (WHEN MIN. R.F.=1)  AT K=   3, I=  14, J=  41

 MAXIMUM STEPSIZE WHICH MEETS STABILITY CRITERION OF THE ADVECTION TERM
 (FOR PURE FINITE-DIFFERENCE OPTION, MIXELM=0) 
 = 0.4551    (WHEN MIN. R.F.=1)  AT K=   3, I=  14, J=  41

                    "CNH             " FLOW TERMS FOR TIME STEP  1, STRESS PERIOD  2 READ UNFORMATTED ON UNIT 10
                    --------------------------------------------------------------------------------------------

                    "WEL             " FLOW TERMS FOR TIME STEP  1, STRESS PERIOD  2 READ UNFORMATTED ON UNIT 10
                    --------------------------------------------------------------------------------------------


 TOTAL NUMBER OF POINT SOURCES/SINKS PRESENT IN THE FLOW MODEL =   648

 MAXIMUM STEPSIZE WHICH MEETS STABILITY CRITERION OF THE SINK & SOURCE TERM
 = 0.6050    (WHEN MIN. R.F.=1)  AT K=   1, I=   8, J=   1

 MAXIMUM STEPSIZE WHICH MEETS STABILITY CRITERION OF THE DISPERSION TERM
 = 0.8334    (WHEN MIN. R.F.=1)  AT K=   3, I=  14, J=  41


     1 CALLS TO GCG PACKAGE FOR TRANSPORT TIME STEP     1 IN FLOW TIME STEP     1 STRESS PERIOD     2
      3 TOTAL ITERATIONS



 >>>>>>>>>>>>>>>>>>>>>>>>>>>>>>>>>>>>>>>>>>>>>>>>>>>>>>>FOR COMPONENT NO. 01<<<<<<<<<<<<<<<<<<<<<<<<<<<<<<<<<<<<<<<<<<<<<<<<<<<<<<<


                                            -------------------------------------------
                                                      TRANSPORT STEP NO.    1
                                            -------------------------------------------

 TOTAL ELAPSED TIME SINCE BEGINNING OF SIMULATION =   1.213300    M   
 .....................................................................

                     CUMULATIVE MASS BUDGETS AT END OF TRANSPORT STEP    1, TIME STEP    1, STRESS PERIOD    2
                     -----------------------------------------------------------------------------------------

                                                             IN                           OUT
                                                      ----------------             ----------------
                               CONSTANT CONCENTRATION:    0.000000                    0.000000    
                                        CONSTANT HEAD:    0.000000                    0.000000    
                                                WELLS:    1.734396                    0.000000    
                               MASS STOR (FLOW MODEL):    0.000000                    0.000000    
                                MASS STORAGE (SOLUTE):   0.3008420                   -2.035226    
                            ---------------------------------------------------------------------------
                                              [TOTAL]:    2.035238     KG            -2.035226     KG  

                                                          NET (IN - OUT):   0.1168251E-04
                                                   DISCREPANCY (PERCENT):   0.5740138E-03
     1 CALLS TO GCG PACKAGE FOR TRANSPORT TIME STEP     2 IN FLOW TIME STEP     1 STRESS PERIOD     2
      3 TOTAL ITERATIONS
     1 CALLS TO GCG PACKAGE FOR TRANSPORT TIME STEP     3 IN FLOW TIME STEP     1 STRESS PERIOD     2
      3 TOTAL ITERATIONS



 >>>>>>>>>>>>>>>>>>>>>>>>>>>>>>>>>>>>>>>>>>>>>>>>>>>>>>>FOR COMPONENT NO. 01<<<<<<<<<<<<<<<<<<<<<<<<<<<<<<<<<<<<<<<<<<<<<<<<<<<<<<<


                                            -------------------------------------------
                                                      TRANSPORT STEP NO.    3
                                            -------------------------------------------

 TOTAL ELAPSED TIME SINCE BEGINNING OF SIMULATION =   1.820000    M   
 .....................................................................

                     CUMULATIVE MASS BUDGETS AT END OF TRANSPORT STEP    3, TIME STEP    1, STRESS PERIOD    2
                     -----------------------------------------------------------------------------------------

                                                             IN                           OUT
                                                      ----------------             ----------------
                               CONSTANT CONCENTRATION:    0.000000                    0.000000    
                                        CONSTANT HEAD:    0.000000                  -0.1314736E-35
                                                WELLS:    1.734396                    0.000000    
                               MASS STOR (FLOW MODEL):    0.000000                    0.000000    
                                MASS STORAGE (SOLUTE):   0.9611135                   -2.695495    
                            ---------------------------------------------------------------------------
                                              [TOTAL]:    2.695509     KG            -2.695495     KG  

                                                          NET (IN - OUT):   0.1382828E-04
                                                   DISCREPANCY (PERCENT):   0.5130130E-03
     1 CALLS TO GCG PACKAGE FOR TRANSPORT TIME STEP     4 IN FLOW TIME STEP     1 STRESS PERIOD     2
      3 TOTAL ITERATIONS
     1 CALLS TO GCG PACKAGE FOR TRANSPORT TIME STEP     5 IN FLOW TIME STEP     1 STRESS PERIOD     2
      3 TOTAL ITERATIONS



 >>>>>>>>>>>>>>>>>>>>>>>>>>>>>>>>>>>>>>>>>>>>>>>>>>>>>>>FOR COMPONENT NO. 01<<<<<<<<<<<<<<<<<<<<<<<<<<<<<<<<<<<<<<<<<<<<<<<<<<<<<<<


                                            -------------------------------------------
                                                      TRANSPORT STEP NO.    5
                                            -------------------------------------------

 TOTAL ELAPSED TIME SINCE BEGINNING OF SIMULATION =   2.426700    M   
 .....................................................................

                     CUMULATIVE MASS BUDGETS AT END OF TRANSPORT STEP    5, TIME STEP    1, STRESS PERIOD    2
                     -----------------------------------------------------------------------------------------

                                                             IN                           OUT
                                                      ----------------             ----------------
                               CONSTANT CONCENTRATION:    0.000000                    0.000000    
                                        CONSTANT HEAD:    0.000000                  -0.4734204E-33
                                                WELLS:    1.734396                    0.000000    
                               MASS STOR (FLOW MODEL):    0.000000                    0.000000    
                                MASS STORAGE (SOLUTE):    1.499773                   -3.234153    
                            ---------------------------------------------------------------------------
                                              [TOTAL]:    3.234168     KG            -3.234153     KG  

                                                          NET (IN - OUT):   0.1502037E-04
                                                   DISCREPANCY (PERCENT):   0.4644287E-03
     1 CALLS TO GCG PACKAGE FOR TRANSPORT TIME STEP     6 IN FLOW TIME STEP     1 STRESS PERIOD     2
      3 TOTAL ITERATIONS
     1 CALLS TO GCG PACKAGE FOR TRANSPORT TIME STEP     7 IN FLOW TIME STEP     1 STRESS PERIOD     2
      3 TOTAL ITERATIONS



 >>>>>>>>>>>>>>>>>>>>>>>>>>>>>>>>>>>>>>>>>>>>>>>>>>>>>>>FOR COMPONENT NO. 01<<<<<<<<<<<<<<<<<<<<<<<<<<<<<<<<<<<<<<<<<<<<<<<<<<<<<<<


                                            -------------------------------------------
                                                      TRANSPORT STEP NO.    7
                                            -------------------------------------------

 TOTAL ELAPSED TIME SINCE BEGINNING OF SIMULATION =   3.033300    M   
 .....................................................................

                     CUMULATIVE MASS BUDGETS AT END OF TRANSPORT STEP    7, TIME STEP    1, STRESS PERIOD    2
                     -----------------------------------------------------------------------------------------

                                                             IN                           OUT
                                                      ----------------             ----------------
                               CONSTANT CONCENTRATION:    0.000000                    0.000000    
                                        CONSTANT HEAD:    0.000000                  -0.8016419E-31
                                                WELLS:    1.734396                    0.000000    
                               MASS STOR (FLOW MODEL):    0.000000                    0.000000    
                                MASS STORAGE (SOLUTE):    1.969822                   -3.704202    
                            ---------------------------------------------------------------------------
                                              [TOTAL]:    3.704218     KG            -3.704202     KG  

                                                          NET (IN - OUT):   0.1621246E-04
                                                   DISCREPANCY (PERCENT):   0.4376767E-03
     1 CALLS TO GCG PACKAGE FOR TRANSPORT TIME STEP     8 IN FLOW TIME STEP     1 STRESS PERIOD     2
      3 TOTAL ITERATIONS
     1 CALLS TO GCG PACKAGE FOR TRANSPORT TIME STEP     9 IN FLOW TIME STEP     1 STRESS PERIOD     2
      3 TOTAL ITERATIONS



 >>>>>>>>>>>>>>>>>>>>>>>>>>>>>>>>>>>>>>>>>>>>>>>>>>>>>>>FOR COMPONENT NO. 01<<<<<<<<<<<<<<<<<<<<<<<<<<<<<<<<<<<<<<<<<<<<<<<<<<<<<<<


                                            -------------------------------------------
                                                      TRANSPORT STEP NO.    9
                                            -------------------------------------------

 TOTAL ELAPSED TIME SINCE BEGINNING OF SIMULATION =   3.640000    M   
 .....................................................................

                     CUMULATIVE MASS BUDGETS AT END OF TRANSPORT STEP    9, TIME STEP    1, STRESS PERIOD    2
                     -----------------------------------------------------------------------------------------

                                                             IN                           OUT
                                                      ----------------             ----------------
                               CONSTANT CONCENTRATION:    0.000000                    0.000000    
                                        CONSTANT HEAD:    0.000000                  -0.9898665E-29
                                                WELLS:    1.734396                    0.000000    
                               MASS STOR (FLOW MODEL):    0.000000                    0.000000    
                                MASS STORAGE (SOLUTE):    2.394354                   -4.128732    
                            ---------------------------------------------------------------------------
                                              [TOTAL]:    4.128749     KG            -4.128732     KG  

                                                          NET (IN - OUT):   0.1716614E-04
                                                   DISCREPANCY (PERCENT):   0.4157718E-03
     1 CALLS TO GCG PACKAGE FOR TRANSPORT TIME STEP    10 IN FLOW TIME STEP     1 STRESS PERIOD     2
      3 TOTAL ITERATIONS
     1 CALLS TO GCG PACKAGE FOR TRANSPORT TIME STEP    11 IN FLOW TIME STEP     1 STRESS PERIOD     2
      3 TOTAL ITERATIONS



 >>>>>>>>>>>>>>>>>>>>>>>>>>>>>>>>>>>>>>>>>>>>>>>>>>>>>>>FOR COMPONENT NO. 01<<<<<<<<<<<<<<<<<<<<<<<<<<<<<<<<<<<<<<<<<<<<<<<<<<<<<<<


                                            -------------------------------------------
                                                      TRANSPORT STEP NO.   11
                                            -------------------------------------------

 TOTAL ELAPSED TIME SINCE BEGINNING OF SIMULATION =   4.246700    M   
 .....................................................................

                     CUMULATIVE MASS BUDGETS AT END OF TRANSPORT STEP   11, TIME STEP    1, STRESS PERIOD    2
                     -----------------------------------------------------------------------------------------

                                                             IN                           OUT
                                                      ----------------             ----------------
                               CONSTANT CONCENTRATION:    0.000000                    0.000000    
                                        CONSTANT HEAD:    0.000000                  -0.8549318E-27
                                                WELLS:    1.734396                    0.000000    
                               MASS STOR (FLOW MODEL):    0.000000                    0.000000    
                                MASS STORAGE (SOLUTE):    2.784488                   -4.518865    
                            ---------------------------------------------------------------------------
                                              [TOTAL]:    4.518884     KG            -4.518865     KG  

                                                          NET (IN - OUT):   0.1859665E-04
                                                   DISCREPANCY (PERCENT):   0.4115328E-03
     1 CALLS TO GCG PACKAGE FOR TRANSPORT TIME STEP    12 IN FLOW TIME STEP     1 STRESS PERIOD     2
      3 TOTAL ITERATIONS
     1 CALLS TO GCG PACKAGE FOR TRANSPORT TIME STEP    13 IN FLOW TIME STEP     1 STRESS PERIOD     2
      3 TOTAL ITERATIONS



 >>>>>>>>>>>>>>>>>>>>>>>>>>>>>>>>>>>>>>>>>>>>>>>>>>>>>>>FOR COMPONENT NO. 01<<<<<<<<<<<<<<<<<<<<<<<<<<<<<<<<<<<<<<<<<<<<<<<<<<<<<<<


                                            -------------------------------------------
                                                      TRANSPORT STEP NO.   13
                                            -------------------------------------------

 TOTAL ELAPSED TIME SINCE BEGINNING OF SIMULATION =   4.853300    M   
 .....................................................................

                     CUMULATIVE MASS BUDGETS AT END OF TRANSPORT STEP   13, TIME STEP    1, STRESS PERIOD    2
                     -----------------------------------------------------------------------------------------

                                                             IN                           OUT
                                                      ----------------             ----------------
                               CONSTANT CONCENTRATION:    0.000000                    0.000000    
                                        CONSTANT HEAD:    0.000000                  -0.5274814E-25
                                                WELLS:    1.734396                    0.000000    
                               MASS STOR (FLOW MODEL):    0.000000                    0.000000    
                                MASS STORAGE (SOLUTE):    3.147870                   -4.882246    
                            ---------------------------------------------------------------------------
                                              [TOTAL]:    4.882266     KG            -4.882246     KG  

                                                          NET (IN - OUT):   0.1955032E-04
                                                   DISCREPANCY (PERCENT):   0.4004363E-03
     1 CALLS TO GCG PACKAGE FOR TRANSPORT TIME STEP    14 IN FLOW TIME STEP     1 STRESS PERIOD     2
      3 TOTAL ITERATIONS
     1 CALLS TO GCG PACKAGE FOR TRANSPORT TIME STEP    15 IN FLOW TIME STEP     1 STRESS PERIOD     2
      3 TOTAL ITERATIONS



 >>>>>>>>>>>>>>>>>>>>>>>>>>>>>>>>>>>>>>>>>>>>>>>>>>>>>>>FOR COMPONENT NO. 01<<<<<<<<<<<<<<<<<<<<<<<<<<<<<<<<<<<<<<<<<<<<<<<<<<<<<<<


                                            -------------------------------------------
                                                      TRANSPORT STEP NO.   15
                                            -------------------------------------------

 TOTAL ELAPSED TIME SINCE BEGINNING OF SIMULATION =   5.460000    M   
 .....................................................................

                     CUMULATIVE MASS BUDGETS AT END OF TRANSPORT STEP   15, TIME STEP    1, STRESS PERIOD    2
                     -----------------------------------------------------------------------------------------

                                                             IN                           OUT
                                                      ----------------             ----------------
                               CONSTANT CONCENTRATION:    0.000000                    0.000000    
                                        CONSTANT HEAD:    0.000000                  -0.2426903E-23
                                                WELLS:    1.734396                    0.000000    
                               MASS STOR (FLOW MODEL):    0.000000                    0.000000    
                                MASS STORAGE (SOLUTE):    3.489969                   -5.224345    
                            ---------------------------------------------------------------------------
                                              [TOTAL]:    5.224365     KG            -5.224345     KG  

                                                          NET (IN - OUT):   0.2002716E-04
                                                   DISCREPANCY (PERCENT):   0.3833422E-03
     1 CALLS TO GCG PACKAGE FOR TRANSPORT TIME STEP    16 IN FLOW TIME STEP     1 STRESS PERIOD     2
      3 TOTAL ITERATIONS
     1 CALLS TO GCG PACKAGE FOR TRANSPORT TIME STEP    17 IN FLOW TIME STEP     1 STRESS PERIOD     2
      3 TOTAL ITERATIONS



 >>>>>>>>>>>>>>>>>>>>>>>>>>>>>>>>>>>>>>>>>>>>>>>>>>>>>>>FOR COMPONENT NO. 01<<<<<<<<<<<<<<<<<<<<<<<<<<<<<<<<<<<<<<<<<<<<<<<<<<<<<<<


                                            -------------------------------------------
                                                      TRANSPORT STEP NO.   17
                                            -------------------------------------------

 TOTAL ELAPSED TIME SINCE BEGINNING OF SIMULATION =   6.066700    M   
 .....................................................................

                     CUMULATIVE MASS BUDGETS AT END OF TRANSPORT STEP   17, TIME STEP    1, STRESS PERIOD    2
                     -----------------------------------------------------------------------------------------

                                                             IN                           OUT
                                                      ----------------             ----------------
                               CONSTANT CONCENTRATION:    0.000000                    0.000000    
                                        CONSTANT HEAD:    0.000000                  -0.8650717E-22
                                                WELLS:    1.734396                    0.000000    
                               MASS STOR (FLOW MODEL):    0.000000                    0.000000    
                                MASS STORAGE (SOLUTE):    3.814087                   -5.548462    
                            ---------------------------------------------------------------------------
                                              [TOTAL]:    5.548482     KG            -5.548462     KG  

                                                          NET (IN - OUT):   0.2050400E-04
                                                   DISCREPANCY (PERCENT):   0.3695431E-03
     1 CALLS TO GCG PACKAGE FOR TRANSPORT TIME STEP    18 IN FLOW TIME STEP     1 STRESS PERIOD     2
      3 TOTAL ITERATIONS
     1 CALLS TO GCG PACKAGE FOR TRANSPORT TIME STEP    19 IN FLOW TIME STEP     1 STRESS PERIOD     2
      3 TOTAL ITERATIONS



 >>>>>>>>>>>>>>>>>>>>>>>>>>>>>>>>>>>>>>>>>>>>>>>>>>>>>>>FOR COMPONENT NO. 01<<<<<<<<<<<<<<<<<<<<<<<<<<<<<<<<<<<<<<<<<<<<<<<<<<<<<<<


                                            -------------------------------------------
                                                      TRANSPORT STEP NO.   19
                                            -------------------------------------------

 TOTAL ELAPSED TIME SINCE BEGINNING OF SIMULATION =   6.673300    M   
 .....................................................................

                     CUMULATIVE MASS BUDGETS AT END OF TRANSPORT STEP   19, TIME STEP    1, STRESS PERIOD    2
                     -----------------------------------------------------------------------------------------

                                                             IN                           OUT
                                                      ----------------             ----------------
                               CONSTANT CONCENTRATION:    0.000000                    0.000000    
                                        CONSTANT HEAD:    0.000000                  -0.2471591E-20
                                                WELLS:    1.734396                    0.000000    
                               MASS STOR (FLOW MODEL):    0.000000                    0.000000    
                                MASS STORAGE (SOLUTE):    4.122858                   -5.857232    
                            ---------------------------------------------------------------------------
                                              [TOTAL]:    5.857253     KG            -5.857232     KG  

                                                          NET (IN - OUT):   0.2145767E-04
                                                   DISCREPANCY (PERCENT):   0.3663443E-03
     1 CALLS TO GCG PACKAGE FOR TRANSPORT TIME STEP    20 IN FLOW TIME STEP     1 STRESS PERIOD     2
      3 TOTAL ITERATIONS
     1 CALLS TO GCG PACKAGE FOR TRANSPORT TIME STEP    21 IN FLOW TIME STEP     1 STRESS PERIOD     2
      3 TOTAL ITERATIONS



 >>>>>>>>>>>>>>>>>>>>>>>>>>>>>>>>>>>>>>>>>>>>>>>>>>>>>>>FOR COMPONENT NO. 01<<<<<<<<<<<<<<<<<<<<<<<<<<<<<<<<<<<<<<<<<<<<<<<<<<<<<<<


                                            -------------------------------------------
                                                      TRANSPORT STEP NO.   21
                                            -------------------------------------------

 TOTAL ELAPSED TIME SINCE BEGINNING OF SIMULATION =   7.280000    M   
 .....................................................................

                     CUMULATIVE MASS BUDGETS AT END OF TRANSPORT STEP   21, TIME STEP    1, STRESS PERIOD    2
                     -----------------------------------------------------------------------------------------

                                                             IN                           OUT
[...]
                                                WELLS:    1.734396                    0.000000    
                               MASS STOR (FLOW MODEL):    0.000000                    0.000000    
                                MASS STORAGE (SOLUTE):    11.42251                   -11.42251    
                            ---------------------------------------------------------------------------
                                              [TOTAL]:    13.15691     KG            -13.15690     KG  

                                                          NET (IN - OUT):   0.3814697E-05
                                                   DISCREPANCY (PERCENT):   0.2899388E-04
     1 CALLS TO GCG PACKAGE FOR TRANSPORT TIME STEP   280 IN FLOW TIME STEP     1 STRESS PERIOD     2
      3 TOTAL ITERATIONS
     1 CALLS TO GCG PACKAGE FOR TRANSPORT TIME STEP   281 IN FLOW TIME STEP     1 STRESS PERIOD     2
      3 TOTAL ITERATIONS



 >>>>>>>>>>>>>>>>>>>>>>>>>>>>>>>>>>>>>>>>>>>>>>>>>>>>>>>FOR COMPONENT NO. 01<<<<<<<<<<<<<<<<<<<<<<<<<<<<<<<<<<<<<<<<<<<<<<<<<<<<<<<


                                            -------------------------------------------
                                                      TRANSPORT STEP NO.  281
                                            -------------------------------------------

 TOTAL ELAPSED TIME SINCE BEGINNING OF SIMULATION =   86.14700    M   
 .....................................................................

                     CUMULATIVE MASS BUDGETS AT END OF TRANSPORT STEP  281, TIME STEP    1, STRESS PERIOD    2
                     -----------------------------------------------------------------------------------------

                                                             IN                           OUT
                                                      ----------------             ----------------
                               CONSTANT CONCENTRATION:    0.000000                    0.000000    
                                        CONSTANT HEAD:    0.000000                   -1.734391    
                                                WELLS:    1.734396                    0.000000    
                               MASS STOR (FLOW MODEL):    0.000000                    0.000000    
                                MASS STORAGE (SOLUTE):    11.42251                   -11.42251    
                            ---------------------------------------------------------------------------
                                              [TOTAL]:    13.15691     KG            -13.15690     KG  

                                                          NET (IN - OUT):   0.3814697E-05
                                                   DISCREPANCY (PERCENT):   0.2899388E-04
     1 CALLS TO GCG PACKAGE FOR TRANSPORT TIME STEP   282 IN FLOW TIME STEP     1 STRESS PERIOD     2
      3 TOTAL ITERATIONS
     1 CALLS TO GCG PACKAGE FOR TRANSPORT TIME STEP   283 IN FLOW TIME STEP     1 STRESS PERIOD     2
      3 TOTAL ITERATIONS



 >>>>>>>>>>>>>>>>>>>>>>>>>>>>>>>>>>>>>>>>>>>>>>>>>>>>>>>FOR COMPONENT NO. 01<<<<<<<<<<<<<<<<<<<<<<<<<<<<<<<<<<<<<<<<<<<<<<<<<<<<<<<


                                            -------------------------------------------
                                                      TRANSPORT STEP NO.  283
                                            -------------------------------------------

 TOTAL ELAPSED TIME SINCE BEGINNING OF SIMULATION =   86.75300    M   
 .....................................................................

                     CUMULATIVE MASS BUDGETS AT END OF TRANSPORT STEP  283, TIME STEP    1, STRESS PERIOD    2
                     -----------------------------------------------------------------------------------------

                                                             IN                           OUT
                                                      ----------------             ----------------
                               CONSTANT CONCENTRATION:    0.000000                    0.000000    
                                        CONSTANT HEAD:    0.000000                   -1.734391    
                                                WELLS:    1.734396                    0.000000    
                               MASS STOR (FLOW MODEL):    0.000000                    0.000000    
                                MASS STORAGE (SOLUTE):    11.42251                   -11.42251    
                            ---------------------------------------------------------------------------
                                              [TOTAL]:    13.15691     KG            -13.15690     KG  

                                                          NET (IN - OUT):   0.3814697E-05
                                                   DISCREPANCY (PERCENT):   0.2899388E-04
     1 CALLS TO GCG PACKAGE FOR TRANSPORT TIME STEP   284 IN FLOW TIME STEP     1 STRESS PERIOD     2
      3 TOTAL ITERATIONS
     1 CALLS TO GCG PACKAGE FOR TRANSPORT TIME STEP   285 IN FLOW TIME STEP     1 STRESS PERIOD     2
      3 TOTAL ITERATIONS



 >>>>>>>>>>>>>>>>>>>>>>>>>>>>>>>>>>>>>>>>>>>>>>>>>>>>>>>FOR COMPONENT NO. 01<<<<<<<<<<<<<<<<<<<<<<<<<<<<<<<<<<<<<<<<<<<<<<<<<<<<<<<


                                            -------------------------------------------
                                                      TRANSPORT STEP NO.  285
                                            -------------------------------------------

 TOTAL ELAPSED TIME SINCE BEGINNING OF SIMULATION =   87.36000    M   
 .....................................................................

                     CUMULATIVE MASS BUDGETS AT END OF TRANSPORT STEP  285, TIME STEP    1, STRESS PERIOD    2
                     -----------------------------------------------------------------------------------------

                                                             IN                           OUT
                                                      ----------------             ----------------
                               CONSTANT CONCENTRATION:    0.000000                    0.000000    
                                        CONSTANT HEAD:    0.000000                   -1.734391    
                                                WELLS:    1.734396                    0.000000    
                               MASS STOR (FLOW MODEL):    0.000000                    0.000000    
                                MASS STORAGE (SOLUTE):    11.42251                   -11.42251    
                            ---------------------------------------------------------------------------
                                              [TOTAL]:    13.15691     KG            -13.15690     KG  

                                                          NET (IN - OUT):   0.3814697E-05
                                                   DISCREPANCY (PERCENT):   0.2899388E-04
     1 CALLS TO GCG PACKAGE FOR TRANSPORT TIME STEP   286 IN FLOW TIME STEP     1 STRESS PERIOD     2
      3 TOTAL ITERATIONS
     1 CALLS TO GCG PACKAGE FOR TRANSPORT TIME STEP   287 IN FLOW TIME STEP     1 STRESS PERIOD     2
      3 TOTAL ITERATIONS



 >>>>>>>>>>>>>>>>>>>>>>>>>>>>>>>>>>>>>>>>>>>>>>>>>>>>>>>FOR COMPONENT NO. 01<<<<<<<<<<<<<<<<<<<<<<<<<<<<<<<<<<<<<<<<<<<<<<<<<<<<<<<


                                            -------------------------------------------
                                                      TRANSPORT STEP NO.  287
                                            -------------------------------------------

 TOTAL ELAPSED TIME SINCE BEGINNING OF SIMULATION =   87.96700    M   
 .....................................................................

                     CUMULATIVE MASS BUDGETS AT END OF TRANSPORT STEP  287, TIME STEP    1, STRESS PERIOD    2
                     -----------------------------------------------------------------------------------------

                                                             IN                           OUT
                                                      ----------------             ----------------
                               CONSTANT CONCENTRATION:    0.000000                    0.000000    
                                        CONSTANT HEAD:    0.000000                   -1.734391    
                                                WELLS:    1.734396                    0.000000    
                               MASS STOR (FLOW MODEL):    0.000000                    0.000000    
                                MASS STORAGE (SOLUTE):    11.42251                   -11.42251    
                            ---------------------------------------------------------------------------
                                              [TOTAL]:    13.15691     KG            -13.15690     KG  

                                                          NET (IN - OUT):   0.3814697E-05
                                                   DISCREPANCY (PERCENT):   0.2899388E-04
     1 CALLS TO GCG PACKAGE FOR TRANSPORT TIME STEP   288 IN FLOW TIME STEP     1 STRESS PERIOD     2
      3 TOTAL ITERATIONS
     1 CALLS TO GCG PACKAGE FOR TRANSPORT TIME STEP   289 IN FLOW TIME STEP     1 STRESS PERIOD     2
      3 TOTAL ITERATIONS



 >>>>>>>>>>>>>>>>>>>>>>>>>>>>>>>>>>>>>>>>>>>>>>>>>>>>>>>FOR COMPONENT NO. 01<<<<<<<<<<<<<<<<<<<<<<<<<<<<<<<<<<<<<<<<<<<<<<<<<<<<<<<


                                            -------------------------------------------
                                                      TRANSPORT STEP NO.  289
                                            -------------------------------------------

 TOTAL ELAPSED TIME SINCE BEGINNING OF SIMULATION =   88.57300    M   
 .....................................................................

                     CUMULATIVE MASS BUDGETS AT END OF TRANSPORT STEP  289, TIME STEP    1, STRESS PERIOD    2
                     -----------------------------------------------------------------------------------------

                                                             IN                           OUT
                                                      ----------------             ----------------
                               CONSTANT CONCENTRATION:    0.000000                    0.000000    
                                        CONSTANT HEAD:    0.000000                   -1.734391    
                                                WELLS:    1.734396                    0.000000    
                               MASS STOR (FLOW MODEL):    0.000000                    0.000000    
                                MASS STORAGE (SOLUTE):    11.42251                   -11.42251    
                            ---------------------------------------------------------------------------
                                              [TOTAL]:    13.15691     KG            -13.15690     KG  

                                                          NET (IN - OUT):   0.3814697E-05
                                                   DISCREPANCY (PERCENT):   0.2899388E-04
     1 CALLS TO GCG PACKAGE FOR TRANSPORT TIME STEP   290 IN FLOW TIME STEP     1 STRESS PERIOD     2
      3 TOTAL ITERATIONS
     1 CALLS TO GCG PACKAGE FOR TRANSPORT TIME STEP   291 IN FLOW TIME STEP     1 STRESS PERIOD     2
      3 TOTAL ITERATIONS



 >>>>>>>>>>>>>>>>>>>>>>>>>>>>>>>>>>>>>>>>>>>>>>>>>>>>>>>FOR COMPONENT NO. 01<<<<<<<<<<<<<<<<<<<<<<<<<<<<<<<<<<<<<<<<<<<<<<<<<<<<<<<


                                            -------------------------------------------
                                                      TRANSPORT STEP NO.  291
                                            -------------------------------------------

 TOTAL ELAPSED TIME SINCE BEGINNING OF SIMULATION =   89.18000    M   
 .....................................................................

                     CUMULATIVE MASS BUDGETS AT END OF TRANSPORT STEP  291, TIME STEP    1, STRESS PERIOD    2
                     -----------------------------------------------------------------------------------------

                                                             IN                           OUT
                                                      ----------------             ----------------
                               CONSTANT CONCENTRATION:    0.000000                    0.000000    
                                        CONSTANT HEAD:    0.000000                   -1.734391    
                                                WELLS:    1.734396                    0.000000    
                               MASS STOR (FLOW MODEL):    0.000000                    0.000000    
                                MASS STORAGE (SOLUTE):    11.42251                   -11.42251    
                            ---------------------------------------------------------------------------
                                              [TOTAL]:    13.15691     KG            -13.15690     KG  

                                                          NET (IN - OUT):   0.3814697E-05
                                                   DISCREPANCY (PERCENT):   0.2899388E-04
     1 CALLS TO GCG PACKAGE FOR TRANSPORT TIME STEP   292 IN FLOW TIME STEP     1 STRESS PERIOD     2
      3 TOTAL ITERATIONS
     1 CALLS TO GCG PACKAGE FOR TRANSPORT TIME STEP   293 IN FLOW TIME STEP     1 STRESS PERIOD     2
      3 TOTAL ITERATIONS



 >>>>>>>>>>>>>>>>>>>>>>>>>>>>>>>>>>>>>>>>>>>>>>>>>>>>>>>FOR COMPONENT NO. 01<<<<<<<<<<<<<<<<<<<<<<<<<<<<<<<<<<<<<<<<<<<<<<<<<<<<<<<


                                            -------------------------------------------
                                                      TRANSPORT STEP NO.  293
                                            -------------------------------------------

 TOTAL ELAPSED TIME SINCE BEGINNING OF SIMULATION =   89.78700    M   
 .....................................................................

                     CUMULATIVE MASS BUDGETS AT END OF TRANSPORT STEP  293, TIME STEP    1, STRESS PERIOD    2
                     -----------------------------------------------------------------------------------------

                                                             IN                           OUT
                                                      ----------------             ----------------
                               CONSTANT CONCENTRATION:    0.000000                    0.000000    
                                        CONSTANT HEAD:    0.000000                   -1.734391    
                                                WELLS:    1.734396                    0.000000    
                               MASS STOR (FLOW MODEL):    0.000000                    0.000000    
                                MASS STORAGE (SOLUTE):    11.42251                   -11.42251    
                            ---------------------------------------------------------------------------
                                              [TOTAL]:    13.15691     KG            -13.15690     KG  

                                                          NET (IN - OUT):   0.3814697E-05
                                                   DISCREPANCY (PERCENT):   0.2899388E-04
     1 CALLS TO GCG PACKAGE FOR TRANSPORT TIME STEP   294 IN FLOW TIME STEP     1 STRESS PERIOD     2
      3 TOTAL ITERATIONS
     1 CALLS TO GCG PACKAGE FOR TRANSPORT TIME STEP   295 IN FLOW TIME STEP     1 STRESS PERIOD     2
      3 TOTAL ITERATIONS



 >>>>>>>>>>>>>>>>>>>>>>>>>>>>>>>>>>>>>>>>>>>>>>>>>>>>>>>FOR COMPONENT NO. 01<<<<<<<<<<<<<<<<<<<<<<<<<<<<<<<<<<<<<<<<<<<<<<<<<<<<<<<


                                            -------------------------------------------
                                                      TRANSPORT STEP NO.  295
                                            -------------------------------------------

 TOTAL ELAPSED TIME SINCE BEGINNING OF SIMULATION =   90.39300    M   
 .....................................................................

                     CUMULATIVE MASS BUDGETS AT END OF TRANSPORT STEP  295, TIME STEP    1, STRESS PERIOD    2
                     -----------------------------------------------------------------------------------------

                                                             IN                           OUT
                                                      ----------------             ----------------
                               CONSTANT CONCENTRATION:    0.000000                    0.000000    
                                        CONSTANT HEAD:    0.000000                   -1.734391    
                                                WELLS:    1.734396                    0.000000    
                               MASS STOR (FLOW MODEL):    0.000000                    0.000000    
                                MASS STORAGE (SOLUTE):    11.42251                   -11.42251    
                            ---------------------------------------------------------------------------
                                              [TOTAL]:    13.15691     KG            -13.15690     KG  

                                                          NET (IN - OUT):   0.3814697E-05
                                                   DISCREPANCY (PERCENT):   0.2899388E-04
     1 CALLS TO GCG PACKAGE FOR TRANSPORT TIME STEP   296 IN FLOW TIME STEP     1 STRESS PERIOD     2
      3 TOTAL ITERATIONS
     1 CALLS TO GCG PACKAGE FOR TRANSPORT TIME STEP   297 IN FLOW TIME STEP     1 STRESS PERIOD     2
      3 TOTAL ITERATIONS
  MAXIMUM CONCENTRATION CHANGES FOR EACH ITERATION:
  MAX. CHANGE LAYER,ROW,COL MAX. CHANGE LAYER,ROW,COL MAX. CHANGE LAYER,ROW,COL MAX. CHANGE LAYER,ROW,COL MAX. CHANGE LAYER,ROW,COL
 ------------------------------------------------------------------------------------------------------------------------------------
   0.3100     (  2,  6, 42)  0.4435E-03 (  2,  7, 41)  0.6286E-06 (  2,  8, 40)



 >>>>>>>>>>>>>>>>>>>>>>>>>>>>>>>>>>>>>>>>>>>>>>>>>>>>>>>FOR COMPONENT NO. 01<<<<<<<<<<<<<<<<<<<<<<<<<<<<<<<<<<<<<<<<<<<<<<<<<<<<<<<


                                            -------------------------------------------
                                                      TRANSPORT STEP NO.  297
                                            -------------------------------------------

 TOTAL ELAPSED TIME SINCE BEGINNING OF SIMULATION =   91.00000    M   
 .....................................................................

                     CUMULATIVE MASS BUDGETS AT END OF TRANSPORT STEP  297, TIME STEP    1, STRESS PERIOD    2
                     -----------------------------------------------------------------------------------------

                                                             IN                           OUT
                                                      ----------------             ----------------
                               CONSTANT CONCENTRATION:    0.000000                    0.000000    
                                        CONSTANT HEAD:    0.000000                   -1.734391    
                                                WELLS:    1.734396                    0.000000    
                               MASS STOR (FLOW MODEL):    0.000000                    0.000000    
                                MASS STORAGE (SOLUTE):    11.42251                   -11.42251    
                            ---------------------------------------------------------------------------
                                              [TOTAL]:    13.15691     KG            -13.15690     KG  

                                                          NET (IN - OUT):   0.3814697E-05
                                                   DISCREPANCY (PERCENT):   0.2899388E-04
  ----- 
 | M T |
 | 3 D | END OF MODEL OUTPUT
  ----- 
