                                  MODFLOW-2005     
      U.S. GEOLOGICAL SURVEY MODULAR FINITE-DIFFERENCE GROUND-WATER FLOW MODEL
                            VERSION 1.11.00 8/8/2013

 LIST FILE: td4_mf.list
                         UNIT    2

 OPENING td4_mf.dis
 FILE TYPE:DIS   UNIT   11   STATUS:OLD    
 FORMAT:FORMATTED              ACCESS:SEQUENTIAL          

 OPENING td4_mf.bas
 FILE TYPE:BAS6   UNIT   13   STATUS:OLD    
 FORMAT:FORMATTED              ACCESS:SEQUENTIAL          

 OPENING td4_mf.lpf
 FILE TYPE:LPF   UNIT   15   STATUS:OLD    
 FORMAT:FORMATTED              ACCESS:SEQUENTIAL          

 OPENING td4_mf.wel
 FILE TYPE:WEL   UNIT   20   STATUS:OLD    
 FORMAT:FORMATTED              ACCESS:SEQUENTIAL          

 OPENING td4_mf.pcg
 FILE TYPE:PCG   UNIT   27   STATUS:OLD    
 FORMAT:FORMATTED              ACCESS:SEQUENTIAL          

 OPENING td4_mf.lmt6
 FILE TYPE:LMT6   UNIT   30   STATUS:OLD    
 FORMAT:FORMATTED              ACCESS:SEQUENTIAL          

 OPENING td4_mf.oc
 FILE TYPE:OC   UNIT   14   STATUS:OLD    
 FORMAT:FORMATTED              ACCESS:SEQUENTIAL          

 OPENING td4_mf.hds
 FILE TYPE:DATA(BINARY)   UNIT   51   STATUS:REPLACE
 FORMAT:BINARY                 ACCESS:SEQUENTIAL          

 BAS -- BASIC PACKAGE, VERSION 7, 5/2/2005 INPUT READ FROM UNIT   13
 
 MODFLOW was compiled using mixed precision
 Precision of REAL variables:           6
 Precision of DOUBLE PRECISION variables:          15

 DISCRETIZATION INPUT DATA READ FROM UNIT   11
 # DIS package for  MODFLOW-2005, generated by Flopy.
   20 LAYERS        20 ROWS        42 COLUMNS
    2 STRESS PERIOD(S) IN SIMULATION
 MODEL TIME UNIT IS MINUTES
 MODEL LENGTH UNIT IS CENTIMETERS
  Confining bed flag for each layer:
   0   0   0   0   0   0   0   0   0   0   0   0   0   0   0   0   0   0   0   0

                     DELR =  0.232910    

                     DELC =  0.238800    

 TOP ELEVATION OF LAYER 1 =   0.00000    

   MODEL LAYER BOTTOM EL. = -0.232910     FOR LAYER   1

   MODEL LAYER BOTTOM EL. = -0.465820     FOR LAYER   2

   MODEL LAYER BOTTOM EL. = -0.698730     FOR LAYER   3

   MODEL LAYER BOTTOM EL. = -0.931640     FOR LAYER   4

   MODEL LAYER BOTTOM EL. =  -1.16455     FOR LAYER   5

   MODEL LAYER BOTTOM EL. =  -1.39746     FOR LAYER   6

   MODEL LAYER BOTTOM EL. =  -1.63037     FOR LAYER   7

   MODEL LAYER BOTTOM EL. =  -1.86328     FOR LAYER   8

   MODEL LAYER BOTTOM EL. =  -2.09619     FOR LAYER   9

   MODEL LAYER BOTTOM EL. =  -2.32910     FOR LAYER  10

   MODEL LAYER BOTTOM EL. =  -2.56201     FOR LAYER  11

   MODEL LAYER BOTTOM EL. =  -2.79492     FOR LAYER  12

   MODEL LAYER BOTTOM EL. =  -3.02783     FOR LAYER  13

   MODEL LAYER BOTTOM EL. =  -3.26074     FOR LAYER  14

   MODEL LAYER BOTTOM EL. =  -3.49365     FOR LAYER  15

   MODEL LAYER BOTTOM EL. =  -3.72656     FOR LAYER  16

   MODEL LAYER BOTTOM EL. =  -3.95947     FOR LAYER  17

   MODEL LAYER BOTTOM EL. =  -4.19238     FOR LAYER  18

   MODEL LAYER BOTTOM EL. =  -4.42529     FOR LAYER  19

   MODEL LAYER BOTTOM EL. =  -4.65820     FOR LAYER  20


 STRESS PERIOD     LENGTH       TIME STEPS     MULTIPLIER FOR DELT    SS FLAG
 ----------------------------------------------------------------------------
        1        1.0000000          1                    1.000         SS
        2         90.00000          1                    1.000         SS

 STEADY-STATE SIMULATION



 
 # BAS6 package for  MODFLOW-2005, generated by Flopy.                           
 THE FREE FORMAT OPTION HAS BEEN SELECTED



                     BOUNDARY ARRAY FOR LAYER   1
 READING ON UNIT   13 WITH FORMAT: (42I10)             



                     BOUNDARY ARRAY FOR LAYER   2
 READING ON UNIT   13 WITH FORMAT: (42I10)             



                     BOUNDARY ARRAY FOR LAYER   3
 READING ON UNIT   13 WITH FORMAT: (42I10)             



                     BOUNDARY ARRAY FOR LAYER   4
 READING ON UNIT   13 WITH FORMAT: (42I10)             



                     BOUNDARY ARRAY FOR LAYER   5
 READING ON UNIT   13 WITH FORMAT: (42I10)             



                     BOUNDARY ARRAY FOR LAYER   6
 READING ON UNIT   13 WITH FORMAT: (42I10)             



                     BOUNDARY ARRAY FOR LAYER   7
 READING ON UNIT   13 WITH FORMAT: (42I10)             



                     BOUNDARY ARRAY FOR LAYER   8
 READING ON UNIT   13 WITH FORMAT: (42I10)             



                     BOUNDARY ARRAY FOR LAYER   9
 READING ON UNIT   13 WITH FORMAT: (42I10)             



                     BOUNDARY ARRAY FOR LAYER  10
 READING ON UNIT   13 WITH FORMAT: (42I10)             



                     BOUNDARY ARRAY FOR LAYER  11
 READING ON UNIT   13 WITH FORMAT: (42I10)             



                     BOUNDARY ARRAY FOR LAYER  12
 READING ON UNIT   13 WITH FORMAT: (42I10)             



                     BOUNDARY ARRAY FOR LAYER  13
 READING ON UNIT   13 WITH FORMAT: (42I10)             



                     BOUNDARY ARRAY FOR LAYER  14
 READING ON UNIT   13 WITH FORMAT: (42I10)             



                     BOUNDARY ARRAY FOR LAYER  15
 READING ON UNIT   13 WITH FORMAT: (42I10)             



                     BOUNDARY ARRAY FOR LAYER  16
 READING ON UNIT   13 WITH FORMAT: (42I10)             



                     BOUNDARY ARRAY FOR LAYER  17
 READING ON UNIT   13 WITH FORMAT: (42I10)             



                     BOUNDARY ARRAY FOR LAYER  18
 READING ON UNIT   13 WITH FORMAT: (42I10)             



                     BOUNDARY ARRAY FOR LAYER  19
 READING ON UNIT   13 WITH FORMAT: (42I10)             



                     BOUNDARY ARRAY FOR LAYER  20
 READING ON UNIT   13 WITH FORMAT: (42I10)             

 AQUIFER HEAD WILL BE SET TO  -999.99     AT ALL NO-FLOW NODES (IBOUND=0).



                       INITIAL HEAD FOR LAYER   1
 READING ON UNIT   13 WITH FORMAT: (42E15.6)           



                       INITIAL HEAD FOR LAYER   2
 READING ON UNIT   13 WITH FORMAT: (42E15.6)           



                       INITIAL HEAD FOR LAYER   3
 READING ON UNIT   13 WITH FORMAT: (42E15.6)           



                       INITIAL HEAD FOR LAYER   4
 READING ON UNIT   13 WITH FORMAT: (42E15.6)           



                       INITIAL HEAD FOR LAYER   5
 READING ON UNIT   13 WITH FORMAT: (42E15.6)           



                       INITIAL HEAD FOR LAYER   6
 READING ON UNIT   13 WITH FORMAT: (42E15.6)           



                       INITIAL HEAD FOR LAYER   7
 READING ON UNIT   13 WITH FORMAT: (42E15.6)           



                       INITIAL HEAD FOR LAYER   8
 READING ON UNIT   13 WITH FORMAT: (42E15.6)           



                       INITIAL HEAD FOR LAYER   9
 READING ON UNIT   13 WITH FORMAT: (42E15.6)           



                       INITIAL HEAD FOR LAYER  10
 READING ON UNIT   13 WITH FORMAT: (42E15.6)           



                       INITIAL HEAD FOR LAYER  11
 READING ON UNIT   13 WITH FORMAT: (42E15.6)           



                       INITIAL HEAD FOR LAYER  12
 READING ON UNIT   13 WITH FORMAT: (42E15.6)           



                       INITIAL HEAD FOR LAYER  13
 READING ON UNIT   13 WITH FORMAT: (42E15.6)           



                       INITIAL HEAD FOR LAYER  14
 READING ON UNIT   13 WITH FORMAT: (42E15.6)           



                       INITIAL HEAD FOR LAYER  15
 READING ON UNIT   13 WITH FORMAT: (42E15.6)           



                       INITIAL HEAD FOR LAYER  16
 READING ON UNIT   13 WITH FORMAT: (42E15.6)           



                       INITIAL HEAD FOR LAYER  17
 READING ON UNIT   13 WITH FORMAT: (42E15.6)           



                       INITIAL HEAD FOR LAYER  18
 READING ON UNIT   13 WITH FORMAT: (42E15.6)           



                       INITIAL HEAD FOR LAYER  19
 READING ON UNIT   13 WITH FORMAT: (42E15.6)           



                       INITIAL HEAD FOR LAYER  20
 READING ON UNIT   13 WITH FORMAT: (42E15.6)           
 # OC package for  MODFLOW-2005, generated by Flopy.

 OUTPUT CONTROL IS SPECIFIED ONLY AT TIME STEPS FOR WHICH OUTPUT IS DESIRED
 COMPACT CELL-BY-CELL BUDGET FILES WILL BE WRITTEN
 AUXILIARY DATA WILL BE SAVED IN CELL-BY-CELL BUDGET FILES
 HEAD PRINT FORMAT CODE IS   0    DRAWDOWN PRINT FORMAT CODE IS   0
 HEADS WILL BE SAVED ON UNIT   51    DRAWDOWNS WILL BE SAVED ON UNIT    0

 LPF -- LAYER-PROPERTY FLOW PACKAGE, VERSION 7, 5/2/2005
         INPUT READ FROM UNIT   15
 # LPF package for  MODFLOW-2005, generated by Flopy.
 HEAD AT CELLS THAT CONVERT TO DRY= -1.00000E+30
 No named parameters

   LAYER FLAGS:
 LAYER       LAYTYP        LAYAVG         CHANI        LAYVKA        LAYWET
 ---------------------------------------------------------------------------
    1             0             0     1.000E+00             0             0
    2             0             0     1.000E+00             0             0
    3             0             0     1.000E+00             0             0
    4             0             0     1.000E+00             0             0
    5             0             0     1.000E+00             0             0
    6             0             0     1.000E+00             0             0
    7             0             0     1.000E+00             0             0
    8             0             0     1.000E+00             0             0
    9             0             0     1.000E+00             0             0
   10             0             0     1.000E+00             0             0
   11             0             0     1.000E+00             0             0
   12             0             0     1.000E+00             0             0
   13             0             0     1.000E+00             0             0
   14             0             0     1.000E+00             0             0
   15             0             0     1.000E+00             0             0
   16             0             0     1.000E+00             0             0
   17             0             0     1.000E+00             0             0
   18             0             0     1.000E+00             0             0
   19             0             0     1.000E+00             0             0
   20             0             0     1.000E+00             0             0

   INTERPRETATION OF LAYER FLAGS:
                        INTERBLOCK     HORIZONTAL    DATA IN
         LAYER TYPE   TRANSMISSIVITY   ANISOTROPY   ARRAY VKA   WETTABILITY
 LAYER      (LAYTYP)      (LAYAVG)       (CHANI)      (LAYVKA)      (LAYWET)
 ---------------------------------------------------------------------------
    1      CONFINED      HARMONIC     1.000E+00    VERTICAL K  NON-WETTABLE
    2      CONFINED      HARMONIC     1.000E+00    VERTICAL K  NON-WETTABLE
    3      CONFINED      HARMONIC     1.000E+00    VERTICAL K  NON-WETTABLE
    4      CONFINED      HARMONIC     1.000E+00    VERTICAL K  NON-WETTABLE
    5      CONFINED      HARMONIC     1.000E+00    VERTICAL K  NON-WETTABLE
    6      CONFINED      HARMONIC     1.000E+00    VERTICAL K  NON-WETTABLE
    7      CONFINED      HARMONIC     1.000E+00    VERTICAL K  NON-WETTABLE
    8      CONFINED      HARMONIC     1.000E+00    VERTICAL K  NON-WETTABLE
    9      CONFINED      HARMONIC     1.000E+00    VERTICAL K  NON-WETTABLE
   10      CONFINED      HARMONIC     1.000E+00    VERTICAL K  NON-WETTABLE
   11      CONFINED      HARMONIC     1.000E+00    VERTICAL K  NON-WETTABLE
   12      CONFINED      HARMONIC     1.000E+00    VERTICAL K  NON-WETTABLE
   13      CONFINED      HARMONIC     1.000E+00    VERTICAL K  NON-WETTABLE
   14      CONFINED      HARMONIC     1.000E+00    VERTICAL K  NON-WETTABLE
   15      CONFINED      HARMONIC     1.000E+00    VERTICAL K  NON-WETTABLE
   16      CONFINED      HARMONIC     1.000E+00    VERTICAL K  NON-WETTABLE
   17      CONFINED      HARMONIC     1.000E+00    VERTICAL K  NON-WETTABLE
   18      CONFINED      HARMONIC     1.000E+00    VERTICAL K  NON-WETTABLE
   19      CONFINED      HARMONIC     1.000E+00    VERTICAL K  NON-WETTABLE
   20      CONFINED      HARMONIC     1.000E+00    VERTICAL K  NON-WETTABLE

 WETTING CAPABILITY IS NOT ACTIVE IN ANY LAYER



              HYD. COND. ALONG ROWS FOR LAYER   1
 READING ON UNIT   15 WITH FORMAT: (42E15.6)           

      VERTICAL HYD. COND. =  1.000000     FOR LAYER   1



              HYD. COND. ALONG ROWS FOR LAYER   2
 READING ON UNIT   15 WITH FORMAT: (42E15.6)           

      VERTICAL HYD. COND. =  1.000000     FOR LAYER   2



              HYD. COND. ALONG ROWS FOR LAYER   3
 READING ON UNIT   15 WITH FORMAT: (42E15.6)           

      VERTICAL HYD. COND. =  1.000000     FOR LAYER   3



              HYD. COND. ALONG ROWS FOR LAYER   4
 READING ON UNIT   15 WITH FORMAT: (42E15.6)           

      VERTICAL HYD. COND. =  1.000000     FOR LAYER   4



              HYD. COND. ALONG ROWS FOR LAYER   5
 READING ON UNIT   15 WITH FORMAT: (42E15.6)           

      VERTICAL HYD. COND. =  1.000000     FOR LAYER   5



              HYD. COND. ALONG ROWS FOR LAYER   6
 READING ON UNIT   15 WITH FORMAT: (42E15.6)           

      VERTICAL HYD. COND. =  1.000000     FOR LAYER   6



              HYD. COND. ALONG ROWS FOR LAYER   7
 READING ON UNIT   15 WITH FORMAT: (42E15.6)           

      VERTICAL HYD. COND. =  1.000000     FOR LAYER   7



              HYD. COND. ALONG ROWS FOR LAYER   8
 READING ON UNIT   15 WITH FORMAT: (42E15.6)           

      VERTICAL HYD. COND. =  1.000000     FOR LAYER   8



              HYD. COND. ALONG ROWS FOR LAYER   9
 READING ON UNIT   15 WITH FORMAT: (42E15.6)           

      VERTICAL HYD. COND. =  1.000000     FOR LAYER   9



              HYD. COND. ALONG ROWS FOR LAYER  10
 READING ON UNIT   15 WITH FORMAT: (42E15.6)           

      VERTICAL HYD. COND. =  1.000000     FOR LAYER  10



              HYD. COND. ALONG ROWS FOR LAYER  11
 READING ON UNIT   15 WITH FORMAT: (42E15.6)           

      VERTICAL HYD. COND. =  1.000000     FOR LAYER  11



              HYD. COND. ALONG ROWS FOR LAYER  12
 READING ON UNIT   15 WITH FORMAT: (42E15.6)           

      VERTICAL HYD. COND. =  1.000000     FOR LAYER  12



              HYD. COND. ALONG ROWS FOR LAYER  13
 READING ON UNIT   15 WITH FORMAT: (42E15.6)           

      VERTICAL HYD. COND. =  1.000000     FOR LAYER  13



              HYD. COND. ALONG ROWS FOR LAYER  14
 READING ON UNIT   15 WITH FORMAT: (42E15.6)           

      VERTICAL HYD. COND. =  1.000000     FOR LAYER  14



              HYD. COND. ALONG ROWS FOR LAYER  15
 READING ON UNIT   15 WITH FORMAT: (42E15.6)           

      VERTICAL HYD. COND. =  1.000000     FOR LAYER  15



              HYD. COND. ALONG ROWS FOR LAYER  16
 READING ON UNIT   15 WITH FORMAT: (42E15.6)           

      VERTICAL HYD. COND. =  1.000000     FOR LAYER  16



              HYD. COND. ALONG ROWS FOR LAYER  17
 READING ON UNIT   15 WITH FORMAT: (42E15.6)           

      VERTICAL HYD. COND. =  1.000000     FOR LAYER  17



              HYD. COND. ALONG ROWS FOR LAYER  18
 READING ON UNIT   15 WITH FORMAT: (42E15.6)           

      VERTICAL HYD. COND. =  1.000000     FOR LAYER  18



              HYD. COND. ALONG ROWS FOR LAYER  19
 READING ON UNIT   15 WITH FORMAT: (42E15.6)           

      VERTICAL HYD. COND. =  1.000000     FOR LAYER  19



              HYD. COND. ALONG ROWS FOR LAYER  20
 READING ON UNIT   15 WITH FORMAT: (42E15.6)           

      VERTICAL HYD. COND. =  1.000000     FOR LAYER  20

 WEL -- WELL PACKAGE, VERSION 7, 5/2/2005 INPUT READ FROM UNIT   20
 # WEL package for  MODFLOW-2005, generated by Flopy.
 No named parameters
 MAXIMUM OF    324 ACTIVE WELLS AT ONE TIME


     0 Well parameters

 PCG -- CONJUGATE-GRADIENT SOLUTION PACKAGE, VERSION 7, 5/2/2005
 # PCG package for  MODFLOW-2005, generated by Flopy.
 MAXIMUM OF    100 CALLS OF SOLUTION ROUTINE
 MAXIMUM OF     30 INTERNAL ITERATIONS PER CALL TO SOLUTION ROUTINE
 MATRIX PRECONDITIONING TYPE :    1



                                    SOLUTION BY THE CONJUGATE-GRADIENT METHOD
                                   -------------------------------------------
                    MAXIMUM NUMBER OF CALLS TO PCG ROUTINE =      100
                        MAXIMUM ITERATIONS PER CALL TO PCG =       30
                               MATRIX PRECONDITIONING TYPE =        1
        RELAXATION FACTOR (ONLY USED WITH PRECOND. TYPE 1) =    0.97000E+00
 PARAMETER OF POLYNOMIAL PRECOND. = 2 (2) OR IS CALCULATED :        0
                         HEAD CHANGE CRITERION FOR CLOSURE =    0.10000E-04
                     RESIDUAL CHANGE CRITERION FOR CLOSURE =    0.10000E-04
            PCG HEAD AND RESIDUAL CHANGE PRINTOUT INTERVAL =      999
     PRINTING FROM SOLVER IS LIMITED(1) OR SUPPRESSED (>1) =        3
                            STEADY-STATE DAMPING PARAMETER =    0.10000E+01
                               TRANSIENT DAMPING PARAMETER =    0.10000E+01


 ***Link-MT3DMS Package v7***
 OPENING LINK-MT3DMS OUTPUT FILE: mt3d_link.ftl                                                                                                                                                                                           
 ON UNIT NUMBER:    54
 FILE TYPE: UNFORMATTED
 HEADER OPTION: EXTENDED
 ***Link-MT3DMS Package v7***

1
                            STRESS PERIOD NO.    1, LENGTH =  1.0000000    
                            -----------------------------------------------

                              NUMBER OF TIME STEPS =     1

                               MULTIPLIER FOR DELT =     1.000

                            INITIAL TIME STEP SIZE =  1.0000000    

 WELL NO.  LAYER   ROW   COL   STRESS RATE         
 --------------------------------------------------
      1      1      8      1      0.5353E-02
      2      1      9      1      0.5353E-02
      3      1     10      1      0.5353E-02
      4      1     11      1      0.5353E-02
      5      1     12      1      0.5353E-02
      6      1     13      1      0.5353E-02
      7      2      6      1      0.5353E-02
      8      2      7      1      0.5353E-02
      9      2      8      1      0.5353E-02
     10      2      9      1      0.5353E-02
     11      2     10      1      0.5353E-02
     12      2     11      1      0.5353E-02
     13      2     12      1      0.5353E-02
     14      2     13      1      0.5353E-02
     15      2     14      1      0.5353E-02
     16      2     15      1      0.5353E-02
     17      3      4      1      0.5353E-02
     18      3      5      1      0.5353E-02
     19      3      6      1      0.5353E-02
     20      3      7      1      0.5353E-02
     21      3      8      1      0.5353E-02
     22      3      9      1      0.5353E-02
     23      3     10      1      0.5353E-02
     24      3     11      1      0.5353E-02
     25      3     12      1      0.5353E-02
     26      3     13      1      0.5353E-02
     27      3     14      1      0.5353E-02
     28      3     15      1      0.5353E-02
     29      3     16      1      0.5353E-02
     30      3     17      1      0.5353E-02
     31      4      3      1      0.5353E-02
     32      4      4      1      0.5353E-02
     33      4      5      1      0.5353E-02
     34      4      6      1      0.5353E-02
     35      4      7      1      0.5353E-02
     36      4      8      1      0.5353E-02
     37      4      9      1      0.5353E-02
     38      4     10      1      0.5353E-02
     39      4     11      1      0.5353E-02
     40      4     12      1      0.5353E-02
     41      4     13      1      0.5353E-02
     42      4     14      1      0.5353E-02
     43      4     15      1      0.5353E-02
     44      4     16      1      0.5353E-02
     45      4     17      1      0.5353E-02
     46      4     18      1      0.5353E-02
     47      5      2      1      0.5353E-02
     48      5      3      1      0.5353E-02
     49      5      4      1      0.5353E-02
     50      5      5      1      0.5353E-02
     51      5      6      1      0.5353E-02
     52      5      7      1      0.5353E-02
     53      5      8      1      0.5353E-02
     54      5      9      1      0.5353E-02
     55      5     10      1      0.5353E-02
     56      5     11      1      0.5353E-02
     57      5     12      1      0.5353E-02
     58      5     13      1      0.5353E-02
     59      5     14      1      0.5353E-02
     60      5     15      1      0.5353E-02
     61      5     16      1      0.5353E-02
     62      5     17      1      0.5353E-02
     63      5     18      1      0.5353E-02
     64      5     19      1      0.5353E-02
     65      6      2      1      0.5353E-02
     66      6      3      1      0.5353E-02
     67      6      4      1      0.5353E-02
     68      6      5      1      0.5353E-02
     69      6      6      1      0.5353E-02
     70      6      7      1      0.5353E-02
     71      6      8      1      0.5353E-02
     72      6      9      1      0.5353E-02
     73      6     10      1      0.5353E-02
     74      6     11      1      0.5353E-02
     75      6     12      1      0.5353E-02
     76      6     13      1      0.5353E-02
     77      6     14      1      0.5353E-02
     78      6     15      1      0.5353E-02
     79      6     16      1      0.5353E-02
     80      6     17      1      0.5353E-02
     81      6     18      1      0.5353E-02
     82      6     19      1      0.5353E-02
     83      7      1      1      0.5353E-02
     84      7      2      1      0.5353E-02
     85      7      3      1      0.5353E-02
     86      7      4      1      0.5353E-02
     87      7      5      1      0.5353E-02
     88      7      6      1      0.5353E-02
     89      7      7      1      0.5353E-02
     90      7      8      1      0.5353E-02
     91      7      9      1      0.5353E-02
     92      7     10      1      0.5353E-02
     93      7     11      1      0.5353E-02
     94      7     12      1      0.5353E-02
     95      7     13      1      0.5353E-02
     96      7     14      1      0.5353E-02
     97      7     15      1      0.5353E-02
     98      7     16      1      0.5353E-02
     99      7     17      1      0.5353E-02
    100      7     18      1      0.5353E-02
    101      7     19      1      0.5353E-02
    102      7     20      1      0.5353E-02
    103      8      1      1      0.5353E-02
    104      8      2      1      0.5353E-02
    105      8      3      1      0.5353E-02
    106      8      4      1      0.5353E-02
    107      8      5      1      0.5353E-02
    108      8      6      1      0.5353E-02
    109      8      7      1      0.5353E-02
    110      8      8      1      0.5353E-02
    111      8      9      1      0.5353E-02
    112      8     10      1      0.5353E-02
    113      8     11      1      0.5353E-02
    114      8     12      1      0.5353E-02
    115      8     13      1      0.5353E-02
    116      8     14      1      0.5353E-02
    117      8     15      1      0.5353E-02
    118      8     16      1      0.5353E-02
    119      8     17      1      0.5353E-02
    120      8     18      1      0.5353E-02
    121      8     19      1      0.5353E-02
    122      8     20      1      0.5353E-02
    123      9      1      1      0.5353E-02
    124      9      2      1      0.5353E-02
    125      9      3      1      0.5353E-02
    126      9      4      1      0.5353E-02
    127      9      5      1      0.5353E-02
    128      9      6      1      0.5353E-02
    129      9      7      1      0.5353E-02
    130      9      8      1      0.5353E-02
    131      9      9      1      0.5353E-02
    132      9     10      1      0.5353E-02
    133      9     11      1      0.5353E-02
    134      9     12      1      0.5353E-02
    135      9     13      1      0.5353E-02
    136      9     14      1      0.5353E-02
    137      9     15      1      0.5353E-02
    138      9     16      1      0.5353E-02
    139      9     17      1      0.5353E-02
    140      9     18      1      0.5353E-02
    141      9     19      1      0.5353E-02
    142      9     20      1      0.5353E-02
    143     10      1      1      0.5353E-02
    144     10      2      1      0.5353E-02
    145     10      3      1      0.5353E-02
    146     10      4      1      0.5353E-02
    147     10      5      1      0.5353E-02
    148     10      6      1      0.5353E-02
    149     10      7      1      0.5353E-02
    150     10      8      1      0.5353E-02
    151     10      9      1      0.5353E-02
    152     10     10      1      0.5353E-02
    153     10     11      1      0.5353E-02
    154     10     12      1      0.5353E-02
    155     10     13      1      0.5353E-02
    156     10     14      1      0.5353E-02
    157     10     15      1      0.5353E-02
    158     10     16      1      0.5353E-02
    159     10     17      1      0.5353E-02
    160     10     18      1      0.5353E-02
    161     10     19      1      0.5353E-02
    162     10     20      1      0.5353E-02
    163     11      1      1      0.5353E-02
    164     11      2      1      0.5353E-02
    165     11      3      1      0.5353E-02
    166     11      4      1      0.5353E-02
    167     11      5      1      0.5353E-02
    168     11      6      1      0.5353E-02
    169     11      7      1      0.5353E-02
    170     11      8      1      0.5353E-02
    171     11      9      1      0.5353E-02
    172     11     10      1      0.5353E-02
    173     11     11      1      0.5353E-02
    174     11     12      1      0.5353E-02
    175     11     13      1      0.5353E-02
    176     11     14      1      0.5353E-02
    177     11     15      1      0.5353E-02
    178     11     16      1      0.5353E-02
    179     11     17      1      0.5353E-02
    180     11     18      1      0.5353E-02
    181     11     19      1      0.5353E-02
    182     11     20      1      0.5353E-02
    183     12      1      1      0.5353E-02
    184     12      2      1      0.5353E-02
    185     12      3      1      0.5353E-02
    186     12      4      1      0.5353E-02
    187     12      5      1      0.5353E-02
    188     12      6      1      0.5353E-02
    189     12      7      1      0.5353E-02
    190     12      8      1      0.5353E-02
    191     12      9      1      0.5353E-02
    192     12     10      1      0.5353E-02
    193     12     11      1      0.5353E-02
    194     12     12      1      0.5353E-02
    195     12     13      1      0.5353E-02
    196     12     14      1      0.5353E-02
    197     12     15      1      0.5353E-02
    198     12     16      1      0.5353E-02
    199     12     17      1      0.5353E-02
    200     12     18      1      0.5353E-02
    201     12     19      1      0.5353E-02
    202     12     20      1      0.5353E-02
    203     13      1      1      0.5353E-02
    204     13      2      1      0.5353E-02
    205     13      3      1      0.5353E-02
    206     13      4      1      0.5353E-02
    207     13      5      1      0.5353E-02
    208     13      6      1      0.5353E-02
    209     13      7      1      0.5353E-02
    210     13      8      1      0.5353E-02
    211     13      9      1      0.5353E-02
    212     13     10      1      0.5353E-02
    213     13     11      1      0.5353E-02
    214     13     12      1      0.5353E-02
    215     13     13      1      0.5353E-02
    216     13     14      1      0.5353E-02
    217     13     15      1      0.5353E-02
    218     13     16      1      0.5353E-02
    219     13     17      1      0.5353E-02
    220     13     18      1      0.5353E-02
    221     13     19      1      0.5353E-02
    222     13     20      1      0.5353E-02
    223     14      1      1      0.5353E-02
    224     14      2      1      0.5353E-02
    225     14      3      1      0.5353E-02
    226     14      4      1      0.5353E-02
    227     14      5      1      0.5353E-02
    228     14      6      1      0.5353E-02
    229     14      7      1      0.5353E-02
    230     14      8      1      0.5353E-02
    231     14      9      1      0.5353E-02
    232     14     10      1      0.5353E-02
    233     14     11      1      0.5353E-02
    234     14     12      1      0.5353E-02
    235     14     13      1      0.5353E-02
    236     14     14      1      0.5353E-02
    237     14     15      1      0.5353E-02
    238     14     16      1      0.5353E-02
    239     14     17      1      0.5353E-02
    240     14     18      1      0.5353E-02
    241     14     19      1      0.5353E-02
    242     14     20      1      0.5353E-02
    243     15      2      1      0.5353E-02
    244     15      3      1      0.5353E-02
    245     15      4      1      0.5353E-02
    246     15      5      1      0.5353E-02
    247     15      6      1      0.5353E-02
    248     15      7      1      0.5353E-02
    249     15      8      1      0.5353E-02
    250     15      9      1      0.5353E-02
    251     15     10      1      0.5353E-02
    252     15     11      1      0.5353E-02
    253     15     12      1      0.5353E-02
    254     15     13      1      0.5353E-02
    255     15     14      1      0.5353E-02
    256     15     15      1      0.5353E-02
    257     15     16      1      0.5353E-02
    258     15     17      1      0.5353E-02
    259     15     18      1      0.5353E-02
    260     15     19      1      0.5353E-02
    261     16      2      1      0.5353E-02
    262     16      3      1      0.5353E-02
    263     16      4      1      0.5353E-02
    264     16      5      1      0.5353E-02
    265     16      6      1      0.5353E-02
    266     16      7      1      0.5353E-02
    267     16      8      1      0.5353E-02
    268     16      9      1      0.5353E-02
    269     16     10      1      0.5353E-02
    270     16     11      1      0.5353E-02
    271     16     12      1      0.5353E-02
    272     16     13      1      0.5353E-02
    273     16     14      1      0.5353E-02
    274     16     15      1      0.5353E-02
    275     16     16      1      0.5353E-02
    276     16     17      1      0.5353E-02
    277     16     18      1      0.5353E-02
    278     16     19      1      0.5353E-02
    279     17      3      1      0.5353E-02
    280     17      4      1      0.5353E-02
    281     17      5      1      0.5353E-02
    282     17      6      1      0.5353E-02
    283     17      7      1      0.5353E-02
    284     17      8      1      0.5353E-02
    285     17      9      1      0.5353E-02
    286     17     10      1      0.5353E-02
    287     17     11      1      0.5353E-02
    288     17     12      1      0.5353E-02
    289     17     13      1      0.5353E-02
    290     17     14      1      0.5353E-02
    291     17     15      1      0.5353E-02
    292     17     16      1      0.5353E-02
    293     17     17      1      0.5353E-02
    294     17     18      1      0.5353E-02
    295     18      4      1      0.5353E-02
    296     18      5      1      0.5353E-02
    297     18      6      1      0.5353E-02
    298     18      7      1      0.5353E-02
    299     18      8      1      0.5353E-02
    300     18      9      1      0.5353E-02
    301     18     10      1      0.5353E-02
    302     18     11      1      0.5353E-02
    303     18     12      1      0.5353E-02
    304     18     13      1      0.5353E-02
    305     18     14      1      0.5353E-02
    306     18     15      1      0.5353E-02
    307     18     16      1      0.5353E-02
    308     18     17      1      0.5353E-02
    309     19      6      1      0.5353E-02
    310     19      7      1      0.5353E-02
    311     19      8      1      0.5353E-02
    312     19      9      1      0.5353E-02
    313     19     10      1      0.5353E-02
    314     19     11      1      0.5353E-02
    315     19     12      1      0.5353E-02
    316     19     13      1      0.5353E-02
    317     19     14      1      0.5353E-02
    318     19     15      1      0.5353E-02
    319     20      8      1      0.5353E-02
    320     20      9      1      0.5353E-02
    321     20     10      1      0.5353E-02
    322     20     11      1      0.5353E-02
    323     20     12      1      0.5353E-02
    324     20     13      1      0.5353E-02

    324 WELLS
 
 SOLVING FOR HEAD 

 OUTPUT CONTROL FOR STRESS PERIOD    1   TIME STEP    1
    SAVE HEAD FOR ALL LAYERS

 SAVING SATURATED THICKNESS AND FLOW TERMS ON UNIT   54 FOR MT3DMS
 BY THE LINK-MT3DMS PACKAGE V7 AT TIME STEP    1, STRESS PERIOD    1


 HEAD WILL BE SAVED ON UNIT   51 AT END OF TIME STEP    1, STRESS PERIOD    1
1
  VOLUMETRIC BUDGET FOR ENTIRE MODEL AT END OF TIME STEP    1, STRESS PERIOD   1
  ------------------------------------------------------------------------------

     CUMULATIVE VOLUMES      L**3       RATES FOR THIS TIME STEP      L**3/T
     ------------------                 ------------------------

           IN:                                      IN:
           ---                                      ---
             STORAGE =           0.0000               STORAGE =           0.0000
       CONSTANT HEAD =           0.0000         CONSTANT HEAD =           0.0000
               WELLS =           1.7344                 WELLS =           1.7344

            TOTAL IN =           1.7344              TOTAL IN =           1.7344

          OUT:                                     OUT:
          ----                                     ----
             STORAGE =           0.0000               STORAGE =           0.0000
       CONSTANT HEAD =           1.7343         CONSTANT HEAD =           1.7343
               WELLS =           0.0000                 WELLS =           0.0000

           TOTAL OUT =           1.7343             TOTAL OUT =           1.7343

            IN - OUT =       6.6996E-05              IN - OUT =       6.6996E-05

 PERCENT DISCREPANCY =           0.00     PERCENT DISCREPANCY =           0.00






         TIME SUMMARY AT END OF TIME STEP    1 IN STRESS PERIOD    1
                    SECONDS     MINUTES      HOURS       DAYS        YEARS
                    -----------------------------------------------------------
   TIME STEP LENGTH  60.000     1.00000     1.66667E-02 6.94444E-04 1.90129E-06
 STRESS PERIOD TIME  60.000     1.00000     1.66667E-02 6.94444E-04 1.90129E-06
         TOTAL TIME  60.000     1.00000     1.66667E-02 6.94444E-04 1.90129E-06
1
1
                            STRESS PERIOD NO.    2, LENGTH =   90.00000    
                            -----------------------------------------------

                              NUMBER OF TIME STEPS =     1

                               MULTIPLIER FOR DELT =     1.000

                            INITIAL TIME STEP SIZE =   90.00000    

 REUSING NON-PARAMETER WELLS FROM LAST STRESS PERIOD

    324 WELLS
 
 SOLVING FOR HEAD 

 NO OUTPUT CONTROL FOR STRESS PERIOD    2   TIME STEP    1

 SAVING SATURATED THICKNESS AND FLOW TERMS ON UNIT   54 FOR MT3DMS
 BY THE LINK-MT3DMS PACKAGE V7 AT TIME STEP    1, STRESS PERIOD    2

1
  VOLUMETRIC BUDGET FOR ENTIRE MODEL AT END OF TIME STEP    1, STRESS PERIOD   2
  ------------------------------------------------------------------------------

     CUMULATIVE VOLUMES      L**3       RATES FOR THIS TIME STEP      L**3/T
     ------------------                 ------------------------

           IN:                                      IN:
           ---                                      ---
             STORAGE =           0.0000               STORAGE =           0.0000
       CONSTANT HEAD =           0.0000         CONSTANT HEAD =           0.0000
               WELLS =         157.8295                 WELLS =           1.7344

            TOTAL IN =         157.8295              TOTAL IN =           1.7344

          OUT:                                     OUT:
          ----                                     ----
             STORAGE =           0.0000               STORAGE =           0.0000
       CONSTANT HEAD =         157.8250         CONSTANT HEAD =           1.7343
               WELLS =           0.0000                 WELLS =           0.0000

           TOTAL OUT =         157.8250             TOTAL OUT =           1.7343

            IN - OUT =       4.5013E-03              IN - OUT =       4.9472E-05

 PERCENT DISCREPANCY =           0.00     PERCENT DISCREPANCY =           0.00






         TIME SUMMARY AT END OF TIME STEP    1 IN STRESS PERIOD    2
                    SECONDS     MINUTES      HOURS       DAYS        YEARS
                    -----------------------------------------------------------
   TIME STEP LENGTH  5400.0      90.000      1.5000     6.25000E-02 1.71116E-04
 STRESS PERIOD TIME  5400.0      90.000      1.5000     6.25000E-02 1.71116E-04
         TOTAL TIME  5460.0      91.000      1.5167     6.31944E-02 1.73017E-04
1

 Run end date and time (yyyy/mm/dd hh:mm:ss): 2021/04/20  8:31:13
 Elapsed run time:  0.148 Seconds

