                                  MODFLOW-2005     
      U.S. GEOLOGICAL SURVEY MODULAR FINITE-DIFFERENCE GROUND-WATER FLOW MODEL
                            VERSION 1.11.00 8/8/2013

 LIST FILE: td1_mf.list
                         UNIT    2

 OPENING td1_mf.dis
 FILE TYPE:DIS   UNIT   11   STATUS:OLD    
 FORMAT:FORMATTED              ACCESS:SEQUENTIAL          

 OPENING td1_mf.bas
 FILE TYPE:BAS6   UNIT   13   STATUS:OLD    
 FORMAT:FORMATTED              ACCESS:SEQUENTIAL          

 OPENING td1_mf.lpf
 FILE TYPE:LPF   UNIT   15   STATUS:OLD    
 FORMAT:FORMATTED              ACCESS:SEQUENTIAL          

 OPENING td1_mf.wel
 FILE TYPE:WEL   UNIT   20   STATUS:OLD    
 FORMAT:FORMATTED              ACCESS:SEQUENTIAL          

 OPENING td1_mf.pcg
 FILE TYPE:PCG   UNIT   27   STATUS:OLD    
 FORMAT:FORMATTED              ACCESS:SEQUENTIAL          

 OPENING td1_mf.lmt6
 FILE TYPE:LMT6   UNIT   30   STATUS:OLD    
 FORMAT:FORMATTED              ACCESS:SEQUENTIAL          

 OPENING td1_mf.oc
 FILE TYPE:OC   UNIT   14   STATUS:OLD    
 FORMAT:FORMATTED              ACCESS:SEQUENTIAL          

 OPENING td1_mf.hds
 FILE TYPE:DATA(BINARY)   UNIT   51   STATUS:REPLACE
 FORMAT:BINARY                 ACCESS:SEQUENTIAL          

 BAS -- BASIC PACKAGE, VERSION 7, 5/2/2005 INPUT READ FROM UNIT   13
 
 MODFLOW was compiled using mixed precision
 Precision of REAL variables:           6
 Precision of DOUBLE PRECISION variables:          15

 DISCRETIZATION INPUT DATA READ FROM UNIT   11
 # DIS package for  MODFLOW-2005, generated by Flopy.
   20 LAYERS        20 ROWS        42 COLUMNS
    2 STRESS PERIOD(S) IN SIMULATION
 MODEL TIME UNIT IS MINUTES
 MODEL LENGTH UNIT IS CENTIMETERS
  Confining bed flag for each layer:
   0   0   0   0   0   0   0   0   0   0   0   0   0   0   0   0   0   0   0   0

                     DELR =  0.250000    

                     DELC =  0.250000    

 TOP ELEVATION OF LAYER 1 =   0.00000    

   MODEL LAYER BOTTOM EL. = -0.250000     FOR LAYER   1

   MODEL LAYER BOTTOM EL. = -0.500000     FOR LAYER   2

   MODEL LAYER BOTTOM EL. = -0.750000     FOR LAYER   3

   MODEL LAYER BOTTOM EL. = -1.000000     FOR LAYER   4

   MODEL LAYER BOTTOM EL. =  -1.25000     FOR LAYER   5

   MODEL LAYER BOTTOM EL. =  -1.50000     FOR LAYER   6

   MODEL LAYER BOTTOM EL. =  -1.75000     FOR LAYER   7

   MODEL LAYER BOTTOM EL. =  -2.00000     FOR LAYER   8

   MODEL LAYER BOTTOM EL. =  -2.25000     FOR LAYER   9

   MODEL LAYER BOTTOM EL. =  -2.50000     FOR LAYER  10

   MODEL LAYER BOTTOM EL. =  -2.75000     FOR LAYER  11

   MODEL LAYER BOTTOM EL. =  -3.00000     FOR LAYER  12

   MODEL LAYER BOTTOM EL. =  -3.25000     FOR LAYER  13

   MODEL LAYER BOTTOM EL. =  -3.50000     FOR LAYER  14

   MODEL LAYER BOTTOM EL. =  -3.75000     FOR LAYER  15

   MODEL LAYER BOTTOM EL. =  -4.00000     FOR LAYER  16

   MODEL LAYER BOTTOM EL. =  -4.25000     FOR LAYER  17

   MODEL LAYER BOTTOM EL. =  -4.50000     FOR LAYER  18

   MODEL LAYER BOTTOM EL. =  -4.75000     FOR LAYER  19

   MODEL LAYER BOTTOM EL. =  -5.00000     FOR LAYER  20


 STRESS PERIOD     LENGTH       TIME STEPS     MULTIPLIER FOR DELT    SS FLAG
 ----------------------------------------------------------------------------
        1        1.0000000          1                    1.000         SS
        2         20.00000          1                    1.000         SS

 STEADY-STATE SIMULATION



 
 # BAS6 package for  MODFLOW-2005, generated by Flopy.                           
 THE FREE FORMAT OPTION HAS BEEN SELECTED



                     BOUNDARY ARRAY FOR LAYER   1
 READING ON UNIT   13 WITH FORMAT: (42I10)             



                     BOUNDARY ARRAY FOR LAYER   2
 READING ON UNIT   13 WITH FORMAT: (42I10)             



                     BOUNDARY ARRAY FOR LAYER   3
 READING ON UNIT   13 WITH FORMAT: (42I10)             



                     BOUNDARY ARRAY FOR LAYER   4
 READING ON UNIT   13 WITH FORMAT: (42I10)             



                     BOUNDARY ARRAY FOR LAYER   5
 READING ON UNIT   13 WITH FORMAT: (42I10)             



                     BOUNDARY ARRAY FOR LAYER   6
 READING ON UNIT   13 WITH FORMAT: (42I10)             



                     BOUNDARY ARRAY FOR LAYER   7
 READING ON UNIT   13 WITH FORMAT: (42I10)             



                     BOUNDARY ARRAY FOR LAYER   8
 READING ON UNIT   13 WITH FORMAT: (42I10)             



                     BOUNDARY ARRAY FOR LAYER   9
 READING ON UNIT   13 WITH FORMAT: (42I10)             



                     BOUNDARY ARRAY FOR LAYER  10
 READING ON UNIT   13 WITH FORMAT: (42I10)             



                     BOUNDARY ARRAY FOR LAYER  11
 READING ON UNIT   13 WITH FORMAT: (42I10)             



                     BOUNDARY ARRAY FOR LAYER  12
 READING ON UNIT   13 WITH FORMAT: (42I10)             



                     BOUNDARY ARRAY FOR LAYER  13
 READING ON UNIT   13 WITH FORMAT: (42I10)             



                     BOUNDARY ARRAY FOR LAYER  14
 READING ON UNIT   13 WITH FORMAT: (42I10)             



                     BOUNDARY ARRAY FOR LAYER  15
 READING ON UNIT   13 WITH FORMAT: (42I10)             



                     BOUNDARY ARRAY FOR LAYER  16
 READING ON UNIT   13 WITH FORMAT: (42I10)             



                     BOUNDARY ARRAY FOR LAYER  17
 READING ON UNIT   13 WITH FORMAT: (42I10)             



                     BOUNDARY ARRAY FOR LAYER  18
 READING ON UNIT   13 WITH FORMAT: (42I10)             



                     BOUNDARY ARRAY FOR LAYER  19
 READING ON UNIT   13 WITH FORMAT: (42I10)             



                     BOUNDARY ARRAY FOR LAYER  20
 READING ON UNIT   13 WITH FORMAT: (42I10)             

 AQUIFER HEAD WILL BE SET TO  -999.99     AT ALL NO-FLOW NODES (IBOUND=0).



                       INITIAL HEAD FOR LAYER   1
 READING ON UNIT   13 WITH FORMAT: (42E15.6)           



                       INITIAL HEAD FOR LAYER   2
 READING ON UNIT   13 WITH FORMAT: (42E15.6)           



                       INITIAL HEAD FOR LAYER   3
 READING ON UNIT   13 WITH FORMAT: (42E15.6)           



                       INITIAL HEAD FOR LAYER   4
 READING ON UNIT   13 WITH FORMAT: (42E15.6)           



                       INITIAL HEAD FOR LAYER   5
 READING ON UNIT   13 WITH FORMAT: (42E15.6)           



                       INITIAL HEAD FOR LAYER   6
 READING ON UNIT   13 WITH FORMAT: (42E15.6)           



                       INITIAL HEAD FOR LAYER   7
 READING ON UNIT   13 WITH FORMAT: (42E15.6)           



                       INITIAL HEAD FOR LAYER   8
 READING ON UNIT   13 WITH FORMAT: (42E15.6)           



                       INITIAL HEAD FOR LAYER   9
 READING ON UNIT   13 WITH FORMAT: (42E15.6)           



                       INITIAL HEAD FOR LAYER  10
 READING ON UNIT   13 WITH FORMAT: (42E15.6)           



                       INITIAL HEAD FOR LAYER  11
 READING ON UNIT   13 WITH FORMAT: (42E15.6)           



                       INITIAL HEAD FOR LAYER  12
 READING ON UNIT   13 WITH FORMAT: (42E15.6)           



                       INITIAL HEAD FOR LAYER  13
 READING ON UNIT   13 WITH FORMAT: (42E15.6)           



                       INITIAL HEAD FOR LAYER  14
 READING ON UNIT   13 WITH FORMAT: (42E15.6)           



                       INITIAL HEAD FOR LAYER  15
 READING ON UNIT   13 WITH FORMAT: (42E15.6)           



                       INITIAL HEAD FOR LAYER  16
 READING ON UNIT   13 WITH FORMAT: (42E15.6)           



                       INITIAL HEAD FOR LAYER  17
 READING ON UNIT   13 WITH FORMAT: (42E15.6)           



                       INITIAL HEAD FOR LAYER  18
 READING ON UNIT   13 WITH FORMAT: (42E15.6)           



                       INITIAL HEAD FOR LAYER  19
 READING ON UNIT   13 WITH FORMAT: (42E15.6)           



                       INITIAL HEAD FOR LAYER  20
 READING ON UNIT   13 WITH FORMAT: (42E15.6)           
 # OC package for  MODFLOW-2005, generated by Flopy.

 OUTPUT CONTROL IS SPECIFIED ONLY AT TIME STEPS FOR WHICH OUTPUT IS DESIRED
 COMPACT CELL-BY-CELL BUDGET FILES WILL BE WRITTEN
 AUXILIARY DATA WILL BE SAVED IN CELL-BY-CELL BUDGET FILES
 HEAD PRINT FORMAT CODE IS   0    DRAWDOWN PRINT FORMAT CODE IS   0
 HEADS WILL BE SAVED ON UNIT   51    DRAWDOWNS WILL BE SAVED ON UNIT    0

 LPF -- LAYER-PROPERTY FLOW PACKAGE, VERSION 7, 5/2/2005
         INPUT READ FROM UNIT   15
 # LPF package for  MODFLOW-2005, generated by Flopy.
 HEAD AT CELLS THAT CONVERT TO DRY= -1.00000E+30
 No named parameters

   LAYER FLAGS:
 LAYER       LAYTYP        LAYAVG         CHANI        LAYVKA        LAYWET
 ---------------------------------------------------------------------------
    1             0             0     1.000E+00             0             0
    2             0             0     1.000E+00             0             0
    3             0             0     1.000E+00             0             0
    4             0             0     1.000E+00             0             0
    5             0             0     1.000E+00             0             0
    6             0             0     1.000E+00             0             0
    7             0             0     1.000E+00             0             0
    8             0             0     1.000E+00             0             0
    9             0             0     1.000E+00             0             0
   10             0             0     1.000E+00             0             0
   11             0             0     1.000E+00             0             0
   12             0             0     1.000E+00             0             0
   13             0             0     1.000E+00             0             0
   14             0             0     1.000E+00             0             0
   15             0             0     1.000E+00             0             0
   16             0             0     1.000E+00             0             0
   17             0             0     1.000E+00             0             0
   18             0             0     1.000E+00             0             0
   19             0             0     1.000E+00             0             0
   20             0             0     1.000E+00             0             0

   INTERPRETATION OF LAYER FLAGS:
                        INTERBLOCK     HORIZONTAL    DATA IN
         LAYER TYPE   TRANSMISSIVITY   ANISOTROPY   ARRAY VKA   WETTABILITY
 LAYER      (LAYTYP)      (LAYAVG)       (CHANI)      (LAYVKA)      (LAYWET)
 ---------------------------------------------------------------------------
    1      CONFINED      HARMONIC     1.000E+00    VERTICAL K  NON-WETTABLE
    2      CONFINED      HARMONIC     1.000E+00    VERTICAL K  NON-WETTABLE
    3      CONFINED      HARMONIC     1.000E+00    VERTICAL K  NON-WETTABLE
    4      CONFINED      HARMONIC     1.000E+00    VERTICAL K  NON-WETTABLE
    5      CONFINED      HARMONIC     1.000E+00    VERTICAL K  NON-WETTABLE
    6      CONFINED      HARMONIC     1.000E+00    VERTICAL K  NON-WETTABLE
    7      CONFINED      HARMONIC     1.000E+00    VERTICAL K  NON-WETTABLE
    8      CONFINED      HARMONIC     1.000E+00    VERTICAL K  NON-WETTABLE
    9      CONFINED      HARMONIC     1.000E+00    VERTICAL K  NON-WETTABLE
   10      CONFINED      HARMONIC     1.000E+00    VERTICAL K  NON-WETTABLE
   11      CONFINED      HARMONIC     1.000E+00    VERTICAL K  NON-WETTABLE
   12      CONFINED      HARMONIC     1.000E+00    VERTICAL K  NON-WETTABLE
   13      CONFINED      HARMONIC     1.000E+00    VERTICAL K  NON-WETTABLE
   14      CONFINED      HARMONIC     1.000E+00    VERTICAL K  NON-WETTABLE
   15      CONFINED      HARMONIC     1.000E+00    VERTICAL K  NON-WETTABLE
   16      CONFINED      HARMONIC     1.000E+00    VERTICAL K  NON-WETTABLE
   17      CONFINED      HARMONIC     1.000E+00    VERTICAL K  NON-WETTABLE
   18      CONFINED      HARMONIC     1.000E+00    VERTICAL K  NON-WETTABLE
   19      CONFINED      HARMONIC     1.000E+00    VERTICAL K  NON-WETTABLE
   20      CONFINED      HARMONIC     1.000E+00    VERTICAL K  NON-WETTABLE

 WETTING CAPABILITY IS NOT ACTIVE IN ANY LAYER



              HYD. COND. ALONG ROWS FOR LAYER   1
 READING ON UNIT   15 WITH FORMAT: (42E15.6)           

      VERTICAL HYD. COND. =  1.000000     FOR LAYER   1



              HYD. COND. ALONG ROWS FOR LAYER   2
 READING ON UNIT   15 WITH FORMAT: (42E15.6)           

      VERTICAL HYD. COND. =  1.000000     FOR LAYER   2



              HYD. COND. ALONG ROWS FOR LAYER   3
 READING ON UNIT   15 WITH FORMAT: (42E15.6)           

      VERTICAL HYD. COND. =  1.000000     FOR LAYER   3



              HYD. COND. ALONG ROWS FOR LAYER   4
 READING ON UNIT   15 WITH FORMAT: (42E15.6)           

      VERTICAL HYD. COND. =  1.000000     FOR LAYER   4



              HYD. COND. ALONG ROWS FOR LAYER   5
 READING ON UNIT   15 WITH FORMAT: (42E15.6)           

      VERTICAL HYD. COND. =  1.000000     FOR LAYER   5



              HYD. COND. ALONG ROWS FOR LAYER   6
 READING ON UNIT   15 WITH FORMAT: (42E15.6)           

      VERTICAL HYD. COND. =  1.000000     FOR LAYER   6



              HYD. COND. ALONG ROWS FOR LAYER   7
 READING ON UNIT   15 WITH FORMAT: (42E15.6)           

      VERTICAL HYD. COND. =  1.000000     FOR LAYER   7



              HYD. COND. ALONG ROWS FOR LAYER   8
 READING ON UNIT   15 WITH FORMAT: (42E15.6)           

      VERTICAL HYD. COND. =  1.000000     FOR LAYER   8



              HYD. COND. ALONG ROWS FOR LAYER   9
 READING ON UNIT   15 WITH FORMAT: (42E15.6)           

      VERTICAL HYD. COND. =  1.000000     FOR LAYER   9



              HYD. COND. ALONG ROWS FOR LAYER  10
 READING ON UNIT   15 WITH FORMAT: (42E15.6)           

      VERTICAL HYD. COND. =  1.000000     FOR LAYER  10



              HYD. COND. ALONG ROWS FOR LAYER  11
 READING ON UNIT   15 WITH FORMAT: (42E15.6)           

      VERTICAL HYD. COND. =  1.000000     FOR LAYER  11



              HYD. COND. ALONG ROWS FOR LAYER  12
 READING ON UNIT   15 WITH FORMAT: (42E15.6)           

      VERTICAL HYD. COND. =  1.000000     FOR LAYER  12



              HYD. COND. ALONG ROWS FOR LAYER  13
 READING ON UNIT   15 WITH FORMAT: (42E15.6)           

      VERTICAL HYD. COND. =  1.000000     FOR LAYER  13



              HYD. COND. ALONG ROWS FOR LAYER  14
 READING ON UNIT   15 WITH FORMAT: (42E15.6)           

      VERTICAL HYD. COND. =  1.000000     FOR LAYER  14



              HYD. COND. ALONG ROWS FOR LAYER  15
 READING ON UNIT   15 WITH FORMAT: (42E15.6)           

      VERTICAL HYD. COND. =  1.000000     FOR LAYER  15



              HYD. COND. ALONG ROWS FOR LAYER  16
 READING ON UNIT   15 WITH FORMAT: (42E15.6)           

      VERTICAL HYD. COND. =  1.000000     FOR LAYER  16



              HYD. COND. ALONG ROWS FOR LAYER  17
 READING ON UNIT   15 WITH FORMAT: (42E15.6)           

      VERTICAL HYD. COND. =  1.000000     FOR LAYER  17



              HYD. COND. ALONG ROWS FOR LAYER  18
 READING ON UNIT   15 WITH FORMAT: (42E15.6)           

      VERTICAL HYD. COND. =  1.000000     FOR LAYER  18



              HYD. COND. ALONG ROWS FOR LAYER  19
 READING ON UNIT   15 WITH FORMAT: (42E15.6)           

      VERTICAL HYD. COND. =  1.000000     FOR LAYER  19



              HYD. COND. ALONG ROWS FOR LAYER  20
 READING ON UNIT   15 WITH FORMAT: (42E15.6)           

      VERTICAL HYD. COND. =  1.000000     FOR LAYER  20

 WEL -- WELL PACKAGE, VERSION 7, 5/2/2005 INPUT READ FROM UNIT   20
 # WEL package for  MODFLOW-2005, generated by Flopy.
 No named parameters
 MAXIMUM OF    400 ACTIVE WELLS AT ONE TIME


     0 Well parameters

 PCG -- CONJUGATE-GRADIENT SOLUTION PACKAGE, VERSION 7, 5/2/2005
 # PCG package for  MODFLOW-2005, generated by Flopy.
 MAXIMUM OF     50 CALLS OF SOLUTION ROUTINE
 MAXIMUM OF     30 INTERNAL ITERATIONS PER CALL TO SOLUTION ROUTINE
 MATRIX PRECONDITIONING TYPE :    1



                                    SOLUTION BY THE CONJUGATE-GRADIENT METHOD
                                   -------------------------------------------
                    MAXIMUM NUMBER OF CALLS TO PCG ROUTINE =       50
                        MAXIMUM ITERATIONS PER CALL TO PCG =       30
                               MATRIX PRECONDITIONING TYPE =        1
        RELAXATION FACTOR (ONLY USED WITH PRECOND. TYPE 1) =    0.10000E+01
 PARAMETER OF POLYNOMIAL PRECOND. = 2 (2) OR IS CALCULATED :        0
                         HEAD CHANGE CRITERION FOR CLOSURE =    0.10000E-04
                     RESIDUAL CHANGE CRITERION FOR CLOSURE =    0.10000E-04
            PCG HEAD AND RESIDUAL CHANGE PRINTOUT INTERVAL =      999
     PRINTING FROM SOLVER IS LIMITED(1) OR SUPPRESSED (>1) =        3
                            STEADY-STATE DAMPING PARAMETER =    0.10000E+01
                               TRANSIENT DAMPING PARAMETER =    0.10000E+01


 ***Link-MT3DMS Package v7***
 OPENING LINK-MT3DMS OUTPUT FILE: mt3d_link.ftl                                                                                                                                                                                           
 ON UNIT NUMBER:    54
 FILE TYPE: UNFORMATTED
 HEADER OPTION: EXTENDED
 ***Link-MT3DMS Package v7***

1
                            STRESS PERIOD NO.    1, LENGTH =  1.0000000    
                            -----------------------------------------------

                              NUMBER OF TIME STEPS =     1

                               MULTIPLIER FOR DELT =     1.000

                            INITIAL TIME STEP SIZE =  1.0000000    

 WELL NO.  LAYER   ROW   COL   STRESS RATE         
 --------------------------------------------------
      1      1      1      1      0.2467E-01
      2      1      2      1      0.2467E-01
      3      1      3      1      0.2467E-01
      4      1      4      1      0.2467E-01
      5      1      5      1      0.2467E-01
      6      1      6      1      0.2467E-01
      7      1      7      1      0.2467E-01
      8      1      8      1      0.2467E-01
      9      1      9      1      0.2467E-01
     10      1     10      1      0.2467E-01
     11      1     11      1      0.2467E-01
     12      1     12      1      0.2467E-01
     13      1     13      1      0.2467E-01
     14      1     14      1      0.2467E-01
     15      1     15      1      0.2467E-01
     16      1     16      1      0.2467E-01
     17      1     17      1      0.2467E-01
     18      1     18      1      0.2467E-01
     19      1     19      1      0.2467E-01
     20      1     20      1      0.2467E-01
     21      2      1      1      0.2467E-01
     22      2      2      1      0.2467E-01
     23      2      3      1      0.2467E-01
     24      2      4      1      0.2467E-01
     25      2      5      1      0.2467E-01
     26      2      6      1      0.2467E-01
     27      2      7      1      0.2467E-01
     28      2      8      1      0.2467E-01
     29      2      9      1      0.2467E-01
     30      2     10      1      0.2467E-01
     31      2     11      1      0.2467E-01
     32      2     12      1      0.2467E-01
     33      2     13      1      0.2467E-01
     34      2     14      1      0.2467E-01
     35      2     15      1      0.2467E-01
     36      2     16      1      0.2467E-01
     37      2     17      1      0.2467E-01
     38      2     18      1      0.2467E-01
     39      2     19      1      0.2467E-01
     40      2     20      1      0.2467E-01
     41      3      1      1      0.2467E-01
     42      3      2      1      0.2467E-01
     43      3      3      1      0.2467E-01
     44      3      4      1      0.2467E-01
     45      3      5      1      0.2467E-01
     46      3      6      1      0.2467E-01
     47      3      7      1      0.2467E-01
     48      3      8      1      0.2467E-01
     49      3      9      1      0.2467E-01
     50      3     10      1      0.2467E-01
     51      3     11      1      0.2467E-01
     52      3     12      1      0.2467E-01
     53      3     13      1      0.2467E-01
     54      3     14      1      0.2467E-01
     55      3     15      1      0.2467E-01
     56      3     16      1      0.2467E-01
     57      3     17      1      0.2467E-01
     58      3     18      1      0.2467E-01
     59      3     19      1      0.2467E-01
     60      3     20      1      0.2467E-01
     61      4      1      1      0.2467E-01
     62      4      2      1      0.2467E-01
     63      4      3      1      0.2467E-01
     64      4      4      1      0.2467E-01
     65      4      5      1      0.2467E-01
     66      4      6      1      0.2467E-01
     67      4      7      1      0.2467E-01
     68      4      8      1      0.2467E-01
     69      4      9      1      0.2467E-01
     70      4     10      1      0.2467E-01
     71      4     11      1      0.2467E-01
     72      4     12      1      0.2467E-01
     73      4     13      1      0.2467E-01
     74      4     14      1      0.2467E-01
     75      4     15      1      0.2467E-01
     76      4     16      1      0.2467E-01
     77      4     17      1      0.2467E-01
     78      4     18      1      0.2467E-01
     79      4     19      1      0.2467E-01
     80      4     20      1      0.2467E-01
     81      5      1      1      0.2467E-01
     82      5      2      1      0.2467E-01
     83      5      3      1      0.2467E-01
     84      5      4      1      0.2467E-01
     85      5      5      1      0.2467E-01
     86      5      6      1      0.2467E-01
     87      5      7      1      0.2467E-01
     88      5      8      1      0.2467E-01
     89      5      9      1      0.2467E-01
     90      5     10      1      0.2467E-01
     91      5     11      1      0.2467E-01
     92      5     12      1      0.2467E-01
     93      5     13      1      0.2467E-01
     94      5     14      1      0.2467E-01
     95      5     15      1      0.2467E-01
     96      5     16      1      0.2467E-01
     97      5     17      1      0.2467E-01
     98      5     18      1      0.2467E-01
     99      5     19      1      0.2467E-01
    100      5     20      1      0.2467E-01
    101      6      1      1      0.2467E-01
    102      6      2      1      0.2467E-01
    103      6      3      1      0.2467E-01
    104      6      4      1      0.2467E-01
    105      6      5      1      0.2467E-01
    106      6      6      1      0.2467E-01
    107      6      7      1      0.2467E-01
    108      6      8      1      0.2467E-01
    109      6      9      1      0.2467E-01
    110      6     10      1      0.2467E-01
    111      6     11      1      0.2467E-01
    112      6     12      1      0.2467E-01
    113      6     13      1      0.2467E-01
    114      6     14      1      0.2467E-01
    115      6     15      1      0.2467E-01
    116      6     16      1      0.2467E-01
    117      6     17      1      0.2467E-01
    118      6     18      1      0.2467E-01
    119      6     19      1      0.2467E-01
    120      6     20      1      0.2467E-01
    121      7      1      1      0.2467E-01
    122      7      2      1      0.2467E-01
    123      7      3      1      0.2467E-01
    124      7      4      1      0.2467E-01
    125      7      5      1      0.2467E-01
    126      7      6      1      0.2467E-01
    127      7      7      1      0.2467E-01
    128      7      8      1      0.2467E-01
    129      7      9      1      0.2467E-01
    130      7     10      1      0.2467E-01
    131      7     11      1      0.2467E-01
    132      7     12      1      0.2467E-01
    133      7     13      1      0.2467E-01
    134      7     14      1      0.2467E-01
    135      7     15      1      0.2467E-01
    136      7     16      1      0.2467E-01
    137      7     17      1      0.2467E-01
    138      7     18      1      0.2467E-01
    139      7     19      1      0.2467E-01
    140      7     20      1      0.2467E-01
    141      8      1      1      0.2467E-01
    142      8      2      1      0.2467E-01
    143      8      3      1      0.2467E-01
    144      8      4      1      0.2467E-01
    145      8      5      1      0.2467E-01
    146      8      6      1      0.2467E-01
    147      8      7      1      0.2467E-01
    148      8      8      1      0.2467E-01
    149      8      9      1      0.2467E-01
    150      8     10      1      0.2467E-01
    151      8     11      1      0.2467E-01
    152      8     12      1      0.2467E-01
    153      8     13      1      0.2467E-01
    154      8     14      1      0.2467E-01
    155      8     15      1      0.2467E-01
    156      8     16      1      0.2467E-01
    157      8     17      1      0.2467E-01
    158      8     18      1      0.2467E-01
    159      8     19      1      0.2467E-01
    160      8     20      1      0.2467E-01
    161      9      1      1      0.2467E-01
    162      9      2      1      0.2467E-01
    163      9      3      1      0.2467E-01
    164      9      4      1      0.2467E-01
    165      9      5      1      0.2467E-01
    166      9      6      1      0.2467E-01
    167      9      7      1      0.2467E-01
    168      9      8      1      0.2467E-01
    169      9      9      1      0.2467E-01
    170      9     10      1      0.2467E-01
    171      9     11      1      0.2467E-01
    172      9     12      1      0.2467E-01
    173      9     13      1      0.2467E-01
    174      9     14      1      0.2467E-01
    175      9     15      1      0.2467E-01
    176      9     16      1      0.2467E-01
    177      9     17      1      0.2467E-01
    178      9     18      1      0.2467E-01
    179      9     19      1      0.2467E-01
    180      9     20      1      0.2467E-01
    181     10      1      1      0.2467E-01
    182     10      2      1      0.2467E-01
    183     10      3      1      0.2467E-01
    184     10      4      1      0.2467E-01
    185     10      5      1      0.2467E-01
    186     10      6      1      0.2467E-01
    187     10      7      1      0.2467E-01
    188     10      8      1      0.2467E-01
    189     10      9      1      0.2467E-01
    190     10     10      1      0.2467E-01
    191     10     11      1      0.2467E-01
    192     10     12      1      0.2467E-01
    193     10     13      1      0.2467E-01
    194     10     14      1      0.2467E-01
    195     10     15      1      0.2467E-01
    196     10     16      1      0.2467E-01
    197     10     17      1      0.2467E-01
    198     10     18      1      0.2467E-01
    199     10     19      1      0.2467E-01
    200     10     20      1      0.2467E-01
    201     11      1      1      0.2467E-01
    202     11      2      1      0.2467E-01
    203     11      3      1      0.2467E-01
    204     11      4      1      0.2467E-01
    205     11      5      1      0.2467E-01
    206     11      6      1      0.2467E-01
    207     11      7      1      0.2467E-01
    208     11      8      1      0.2467E-01
    209     11      9      1      0.2467E-01
    210     11     10      1      0.2467E-01
    211     11     11      1      0.2467E-01
    212     11     12      1      0.2467E-01
    213     11     13      1      0.2467E-01
    214     11     14      1      0.2467E-01
    215     11     15      1      0.2467E-01
    216     11     16      1      0.2467E-01
    217     11     17      1      0.2467E-01
    218     11     18      1      0.2467E-01
    219     11     19      1      0.2467E-01
    220     11     20      1      0.2467E-01
    221     12      1      1      0.2467E-01
    222     12      2      1      0.2467E-01
    223     12      3      1      0.2467E-01
    224     12      4      1      0.2467E-01
    225     12      5      1      0.2467E-01
    226     12      6      1      0.2467E-01
    227     12      7      1      0.2467E-01
    228     12      8      1      0.2467E-01
    229     12      9      1      0.2467E-01
    230     12     10      1      0.2467E-01
    231     12     11      1      0.2467E-01
    232     12     12      1      0.2467E-01
    233     12     13      1      0.2467E-01
    234     12     14      1      0.2467E-01
    235     12     15      1      0.2467E-01
    236     12     16      1      0.2467E-01
    237     12     17      1      0.2467E-01
    238     12     18      1      0.2467E-01
    239     12     19      1      0.2467E-01
    240     12     20      1      0.2467E-01
    241     13      1      1      0.2467E-01
    242     13      2      1      0.2467E-01
    243     13      3      1      0.2467E-01
    244     13      4      1      0.2467E-01
    245     13      5      1      0.2467E-01
    246     13      6      1      0.2467E-01
    247     13      7      1      0.2467E-01
    248     13      8      1      0.2467E-01
    249     13      9      1      0.2467E-01
    250     13     10      1      0.2467E-01
    251     13     11      1      0.2467E-01
    252     13     12      1      0.2467E-01
    253     13     13      1      0.2467E-01
    254     13     14      1      0.2467E-01
    255     13     15      1      0.2467E-01
    256     13     16      1      0.2467E-01
    257     13     17      1      0.2467E-01
    258     13     18      1      0.2467E-01
    259     13     19      1      0.2467E-01
    260     13     20      1      0.2467E-01
    261     14      1      1      0.2467E-01
    262     14      2      1      0.2467E-01
    263     14      3      1      0.2467E-01
    264     14      4      1      0.2467E-01
    265     14      5      1      0.2467E-01
    266     14      6      1      0.2467E-01
    267     14      7      1      0.2467E-01
    268     14      8      1      0.2467E-01
    269     14      9      1      0.2467E-01
    270     14     10      1      0.2467E-01
    271     14     11      1      0.2467E-01
    272     14     12      1      0.2467E-01
    273     14     13      1      0.2467E-01
    274     14     14      1      0.2467E-01
    275     14     15      1      0.2467E-01
    276     14     16      1      0.2467E-01
    277     14     17      1      0.2467E-01
    278     14     18      1      0.2467E-01
    279     14     19      1      0.2467E-01
    280     14     20      1      0.2467E-01
    281     15      1      1      0.2467E-01
    282     15      2      1      0.2467E-01
    283     15      3      1      0.2467E-01
    284     15      4      1      0.2467E-01
    285     15      5      1      0.2467E-01
    286     15      6      1      0.2467E-01
    287     15      7      1      0.2467E-01
    288     15      8      1      0.2467E-01
    289     15      9      1      0.2467E-01
    290     15     10      1      0.2467E-01
    291     15     11      1      0.2467E-01
    292     15     12      1      0.2467E-01
    293     15     13      1      0.2467E-01
    294     15     14      1      0.2467E-01
    295     15     15      1      0.2467E-01
    296     15     16      1      0.2467E-01
    297     15     17      1      0.2467E-01
    298     15     18      1      0.2467E-01
    299     15     19      1      0.2467E-01
    300     15     20      1      0.2467E-01
    301     16      1      1      0.2467E-01
    302     16      2      1      0.2467E-01
    303     16      3      1      0.2467E-01
    304     16      4      1      0.2467E-01
    305     16      5      1      0.2467E-01
    306     16      6      1      0.2467E-01
    307     16      7      1      0.2467E-01
    308     16      8      1      0.2467E-01
    309     16      9      1      0.2467E-01
    310     16     10      1      0.2467E-01
    311     16     11      1      0.2467E-01
    312     16     12      1      0.2467E-01
    313     16     13      1      0.2467E-01
    314     16     14      1      0.2467E-01
    315     16     15      1      0.2467E-01
    316     16     16      1      0.2467E-01
    317     16     17      1      0.2467E-01
    318     16     18      1      0.2467E-01
    319     16     19      1      0.2467E-01
    320     16     20      1      0.2467E-01
    321     17      1      1      0.2467E-01
    322     17      2      1      0.2467E-01
    323     17      3      1      0.2467E-01
    324     17      4      1      0.2467E-01
    325     17      5      1      0.2467E-01
    326     17      6      1      0.2467E-01
    327     17      7      1      0.2467E-01
    328     17      8      1      0.2467E-01
    329     17      9      1      0.2467E-01
    330     17     10      1      0.2467E-01
    331     17     11      1      0.2467E-01
    332     17     12      1      0.2467E-01
    333     17     13      1      0.2467E-01
    334     17     14      1      0.2467E-01
    335     17     15      1      0.2467E-01
    336     17     16      1      0.2467E-01
    337     17     17      1      0.2467E-01
    338     17     18      1      0.2467E-01
    339     17     19      1      0.2467E-01
    340     17     20      1      0.2467E-01
    341     18      1      1      0.2467E-01
    342     18      2      1      0.2467E-01
    343     18      3      1      0.2467E-01
    344     18      4      1      0.2467E-01
    345     18      5      1      0.2467E-01
    346     18      6      1      0.2467E-01
    347     18      7      1      0.2467E-01
    348     18      8      1      0.2467E-01
    349     18      9      1      0.2467E-01
    350     18     10      1      0.2467E-01
    351     18     11      1      0.2467E-01
    352     18     12      1      0.2467E-01
    353     18     13      1      0.2467E-01
    354     18     14      1      0.2467E-01
    355     18     15      1      0.2467E-01
    356     18     16      1      0.2467E-01
    357     18     17      1      0.2467E-01
    358     18     18      1      0.2467E-01
    359     18     19      1      0.2467E-01
    360     18     20      1      0.2467E-01
    361     19      1      1      0.2467E-01
    362     19      2      1      0.2467E-01
    363     19      3      1      0.2467E-01
    364     19      4      1      0.2467E-01
    365     19      5      1      0.2467E-01
    366     19      6      1      0.2467E-01
    367     19      7      1      0.2467E-01
    368     19      8      1      0.2467E-01
    369     19      9      1      0.2467E-01
    370     19     10      1      0.2467E-01
    371     19     11      1      0.2467E-01
    372     19     12      1      0.2467E-01
    373     19     13      1      0.2467E-01
    374     19     14      1      0.2467E-01
    375     19     15      1      0.2467E-01
    376     19     16      1      0.2467E-01
    377     19     17      1      0.2467E-01
    378     19     18      1      0.2467E-01
    379     19     19      1      0.2467E-01
    380     19     20      1      0.2467E-01
    381     20      1      1      0.2467E-01
    382     20      2      1      0.2467E-01
    383     20      3      1      0.2467E-01
    384     20      4      1      0.2467E-01
    385     20      5      1      0.2467E-01
    386     20      6      1      0.2467E-01
    387     20      7      1      0.2467E-01
    388     20      8      1      0.2467E-01
    389     20      9      1      0.2467E-01
    390     20     10      1      0.2467E-01
    391     20     11      1      0.2467E-01
    392     20     12      1      0.2467E-01
    393     20     13      1      0.2467E-01
    394     20     14      1      0.2467E-01
    395     20     15      1      0.2467E-01
    396     20     16      1      0.2467E-01
    397     20     17      1      0.2467E-01
    398     20     18      1      0.2467E-01
    399     20     19      1      0.2467E-01
    400     20     20      1      0.2467E-01

    400 WELLS
 
 SOLVING FOR HEAD 

 OUTPUT CONTROL FOR STRESS PERIOD    1   TIME STEP    1
    SAVE HEAD FOR ALL LAYERS

 SAVING SATURATED THICKNESS AND FLOW TERMS ON UNIT   54 FOR MT3DMS
 BY THE LINK-MT3DMS PACKAGE V7 AT TIME STEP    1, STRESS PERIOD    1


 HEAD WILL BE SAVED ON UNIT   51 AT END OF TIME STEP    1, STRESS PERIOD    1
1
  VOLUMETRIC BUDGET FOR ENTIRE MODEL AT END OF TIME STEP    1, STRESS PERIOD   1
  ------------------------------------------------------------------------------

     CUMULATIVE VOLUMES      L**3       RATES FOR THIS TIME STEP      L**3/T
     ------------------                 ------------------------

           IN:                                      IN:
           ---                                      ---
             STORAGE =           0.0000               STORAGE =           0.0000
       CONSTANT HEAD =           0.0000         CONSTANT HEAD =           0.0000
               WELLS =           9.8676                 WELLS =           9.8676

            TOTAL IN =           9.8676              TOTAL IN =           9.8676

          OUT:                                     OUT:
          ----                                     ----
             STORAGE =           0.0000               STORAGE =           0.0000
       CONSTANT HEAD =           9.8676         CONSTANT HEAD =           9.8676
               WELLS =           0.0000                 WELLS =           0.0000

           TOTAL OUT =           9.8676             TOTAL OUT =           9.8676

            IN - OUT =       2.8610E-06              IN - OUT =       2.8610E-06

 PERCENT DISCREPANCY =           0.00     PERCENT DISCREPANCY =           0.00






         TIME SUMMARY AT END OF TIME STEP    1 IN STRESS PERIOD    1
                    SECONDS     MINUTES      HOURS       DAYS        YEARS
                    -----------------------------------------------------------
   TIME STEP LENGTH  60.000     1.00000     1.66667E-02 6.94444E-04 1.90129E-06
 STRESS PERIOD TIME  60.000     1.00000     1.66667E-02 6.94444E-04 1.90129E-06
         TOTAL TIME  60.000     1.00000     1.66667E-02 6.94444E-04 1.90129E-06
1
1
                            STRESS PERIOD NO.    2, LENGTH =   20.00000    
                            -----------------------------------------------

                              NUMBER OF TIME STEPS =     1

                               MULTIPLIER FOR DELT =     1.000

                            INITIAL TIME STEP SIZE =   20.00000    

 REUSING NON-PARAMETER WELLS FROM LAST STRESS PERIOD

    400 WELLS
 
 SOLVING FOR HEAD 

 NO OUTPUT CONTROL FOR STRESS PERIOD    2   TIME STEP    1

 SAVING SATURATED THICKNESS AND FLOW TERMS ON UNIT   54 FOR MT3DMS
 BY THE LINK-MT3DMS PACKAGE V7 AT TIME STEP    1, STRESS PERIOD    2

1
  VOLUMETRIC BUDGET FOR ENTIRE MODEL AT END OF TIME STEP    1, STRESS PERIOD   2
  ------------------------------------------------------------------------------

     CUMULATIVE VOLUMES      L**3       RATES FOR THIS TIME STEP      L**3/T
     ------------------                 ------------------------

           IN:                                      IN:
           ---                                      ---
             STORAGE =           0.0000               STORAGE =           0.0000
       CONSTANT HEAD =           0.0000         CONSTANT HEAD =           0.0000
               WELLS =         207.2202                 WELLS =           9.8676

            TOTAL IN =         207.2202              TOTAL IN =           9.8676

          OUT:                                     OUT:
          ----                                     ----
             STORAGE =           0.0000               STORAGE =           0.0000
       CONSTANT HEAD =         207.2201         CONSTANT HEAD =           9.8676
               WELLS =           0.0000                 WELLS =           0.0000

           TOTAL OUT =         207.2201             TOTAL OUT =           9.8676

            IN - OUT =       6.1035E-05              IN - OUT =       2.8610E-06

 PERCENT DISCREPANCY =           0.00     PERCENT DISCREPANCY =           0.00






         TIME SUMMARY AT END OF TIME STEP    1 IN STRESS PERIOD    2
                    SECONDS     MINUTES      HOURS       DAYS        YEARS
                    -----------------------------------------------------------
   TIME STEP LENGTH  1200.0      20.000     0.33333     1.38889E-02 3.80257E-05
 STRESS PERIOD TIME  1200.0      20.000     0.33333     1.38889E-02 3.80257E-05
         TOTAL TIME  1260.0      21.000     0.35000     1.45833E-02 3.99270E-05
1

 Run end date and time (yyyy/mm/dd hh:mm:ss): 2020/08/06 11:26:55
 Elapsed run time:  0.190 Seconds

