 LISTING FILE: td1_mt.list
                         UNIT  16

 OPENING mt3d_link.ftl
 FILE TYPE:FTL   UNIT  10

 OPENING td1_mt.btn
 FILE TYPE:BTN   UNIT  31

 OPENING td1_mt.adv
 FILE TYPE:ADV   UNIT  32

 OPENING td1_mt.dsp
 FILE TYPE:DSP   UNIT  33

 OPENING td1_mt.ssm
 FILE TYPE:SSM   UNIT  34

 OPENING td1_mt.gcg
 FILE TYPE:GCG   UNIT  35

                              +++++++++++++++++++++++++++++++++++++++++++++++++++++++++++++++++++++++
                              +                                                                     +
                              +                              MT3D-USGS                              +
                              +             A Modular 3D Multi-Species Transport Model              +
                              +    For Simulation of Advection, Dispersion and Chemical Reactions   +
                              +                of Contaminants in Groundwater Systems               +
                              +                                                                     +
                              +++++++++++++++++++++++++++++++++++++++++++++++++++++++++++++++++++++++

  ----- 
 | M T | ## BTN for MT3DMS, generated by Flopy.                                          
 | 3 D | ##                                                                              
  ----- 
 THE TRANSPORT MODEL CONSISTS OF    20 LAYER(S)   20 ROW(S)   42 COLUMN(S)
 NUMBER OF STRESS PERIOD(S) FOR TRANSPORT SIMULATION =    2
 NUMBER OF ALL COMPONENTS INCLUDED IN SIMULATION =    1
 NUMBER OF MOBILE COMPONENTS INCLUDED IN SIMULATION =    1
 UNIT FOR TIME IS M   ;  UNIT FOR LENGTH IS CM  ;  UNIT FOR MASS IS KG  
 OPTIONAL PACKAGES INCLUDED IN CURRENT SIMULATION:
  o ADV   ON UNIT 32
  o DSP   ON UNIT 33
  o SSM   ON UNIT 34
  o GCG   ON UNIT 35


 BTN1 -- BASIC TRANSPORT PACKAGE, VERSION 1, MAY 2016, INPUT READ FROM UNIT 31

 BTN PACKAGE KEYWORD INPUT: 
 DRYCELL OPTION NOT SET
  DRY CELL BUDGET OMITTED FROM GLOBAL MASS BALANCE SUMMARY

 LAYER NUMBER  AQUIFER TYPE
 ------------  ------------
       1            0
       2            0
       3            0
       4            0
       5            0
       6            0
       7            0
       8            0
       9            0
      10            0
      11            0
      12            0
      13            0
      14            0
      15            0
      16            0
      17            0
      18            0
      19            0
      20            0
                                       WIDTH ALONG ROWS (DELR)  =  0.2329100    
                                       WIDTH ALONG COLS (DELC)  =  0.2388000    
                                       TOP ELEV. OF 1ST LAYER   =   0.000000    
                                       CELL THICKNESS (DZ)      =  0.2329100     FOR LAYER  1
                                       CELL THICKNESS (DZ)      =  0.2329100     FOR LAYER  2
                                       CELL THICKNESS (DZ)      =  0.2329100     FOR LAYER  3
                                       CELL THICKNESS (DZ)      =  0.2329100     FOR LAYER  4
                                       CELL THICKNESS (DZ)      =  0.2329100     FOR LAYER  5
                                       CELL THICKNESS (DZ)      =  0.2329100     FOR LAYER  6
                                       CELL THICKNESS (DZ)      =  0.2329100     FOR LAYER  7
                                       CELL THICKNESS (DZ)      =  0.2329100     FOR LAYER  8
                                       CELL THICKNESS (DZ)      =  0.2329100     FOR LAYER  9
                                       CELL THICKNESS (DZ)      =  0.2329100     FOR LAYER 10
                                       CELL THICKNESS (DZ)      =  0.2329100     FOR LAYER 11
                                       CELL THICKNESS (DZ)      =  0.2329100     FOR LAYER 12
                                       CELL THICKNESS (DZ)      =  0.2329100     FOR LAYER 13
                                       CELL THICKNESS (DZ)      =  0.2329100     FOR LAYER 14
                                       CELL THICKNESS (DZ)      =  0.2329100     FOR LAYER 15
                                       CELL THICKNESS (DZ)      =  0.2329100     FOR LAYER 16
                                       CELL THICKNESS (DZ)      =  0.2329100     FOR LAYER 17
                                       CELL THICKNESS (DZ)      =  0.2329100     FOR LAYER 18
                                       CELL THICKNESS (DZ)      =  0.2329100     FOR LAYER 19
                                       CELL THICKNESS (DZ)      =  0.2329100     FOR LAYER 20
                                       POROSITY                 =  0.2500000     FOR LAYER  1
                                       POROSITY                 =  0.2500000     FOR LAYER  2
                                       POROSITY                 =  0.2500000     FOR LAYER  3
                                       POROSITY                 =  0.2500000     FOR LAYER  4
                                       POROSITY                 =  0.2500000     FOR LAYER  5
                                       POROSITY                 =  0.2500000     FOR LAYER  6
                                       POROSITY                 =  0.2500000     FOR LAYER  7
                                       POROSITY                 =  0.2500000     FOR LAYER  8
                                       POROSITY                 =  0.2500000     FOR LAYER  9
                                       POROSITY                 =  0.2500000     FOR LAYER 10
                                       POROSITY                 =  0.2500000     FOR LAYER 11
                                       POROSITY                 =  0.2500000     FOR LAYER 12
                                       POROSITY                 =  0.2500000     FOR LAYER 13
                                       POROSITY                 =  0.2500000     FOR LAYER 14
                                       POROSITY                 =  0.2500000     FOR LAYER 15
                                       POROSITY                 =  0.2500000     FOR LAYER 16
                                       POROSITY                 =  0.2500000     FOR LAYER 17
                                       POROSITY                 =  0.2500000     FOR LAYER 18
                                       POROSITY                 =  0.2500000     FOR LAYER 19
                                       POROSITY                 =  0.2500000     FOR LAYER 20
                                       CONCN. BOUNDARY ARRAY    =              1 FOR LAYER  1
                                       CONCN. BOUNDARY ARRAY    =              1 FOR LAYER  2
                                       CONCN. BOUNDARY ARRAY    =              1 FOR LAYER  3
                                       CONCN. BOUNDARY ARRAY    =              1 FOR LAYER  4
                                       CONCN. BOUNDARY ARRAY    =              1 FOR LAYER  5
                                       CONCN. BOUNDARY ARRAY    =              1 FOR LAYER  6
                                       CONCN. BOUNDARY ARRAY    =              1 FOR LAYER  7
                                       CONCN. BOUNDARY ARRAY    =              1 FOR LAYER  8
                                       CONCN. BOUNDARY ARRAY    =              1 FOR LAYER  9
                                       CONCN. BOUNDARY ARRAY    =              1 FOR LAYER 10
                                       CONCN. BOUNDARY ARRAY    =              1 FOR LAYER 11
                                       CONCN. BOUNDARY ARRAY    =              1 FOR LAYER 12
                                       CONCN. BOUNDARY ARRAY    =              1 FOR LAYER 13
                                       CONCN. BOUNDARY ARRAY    =              1 FOR LAYER 14
                                       CONCN. BOUNDARY ARRAY    =              1 FOR LAYER 15
                                       CONCN. BOUNDARY ARRAY    =              1 FOR LAYER 16
                                       CONCN. BOUNDARY ARRAY    =              1 FOR LAYER 17
                                       CONCN. BOUNDARY ARRAY    =              1 FOR LAYER 18
                                       CONCN. BOUNDARY ARRAY    =              1 FOR LAYER 19
                                       CONCN. BOUNDARY ARRAY    =              1 FOR LAYER 20
                                       INITIAL CONC.: COMP.  01 =   0.000000     FOR LAYER  1
                                       INITIAL CONC.: COMP.  01 =   0.000000     FOR LAYER  2
                                       INITIAL CONC.: COMP.  01 =   0.000000     FOR LAYER  3
                                       INITIAL CONC.: COMP.  01 =   0.000000     FOR LAYER  4
                                       INITIAL CONC.: COMP.  01 =   0.000000     FOR LAYER  5
                                       INITIAL CONC.: COMP.  01 =   0.000000     FOR LAYER  6
                                       INITIAL CONC.: COMP.  01 =   0.000000     FOR LAYER  7
                                       INITIAL CONC.: COMP.  01 =   0.000000     FOR LAYER  8
                                       INITIAL CONC.: COMP.  01 =   0.000000     FOR LAYER  9
                                       INITIAL CONC.: COMP.  01 =   0.000000     FOR LAYER 10
                                       INITIAL CONC.: COMP.  01 =   0.000000     FOR LAYER 11
                                       INITIAL CONC.: COMP.  01 =   0.000000     FOR LAYER 12
                                       INITIAL CONC.: COMP.  01 =   0.000000     FOR LAYER 13
                                       INITIAL CONC.: COMP.  01 =   0.000000     FOR LAYER 14
                                       INITIAL CONC.: COMP.  01 =   0.000000     FOR LAYER 15
                                       INITIAL CONC.: COMP.  01 =   0.000000     FOR LAYER 16
                                       INITIAL CONC.: COMP.  01 =   0.000000     FOR LAYER 17
                                       INITIAL CONC.: COMP.  01 =   0.000000     FOR LAYER 18
                                       INITIAL CONC.: COMP.  01 =   0.000000     FOR LAYER 19
                                       INITIAL CONC.: COMP.  01 =   0.000000     FOR LAYER 20

 VALUE INDICATING INACTIVE CONCENTRATION CELLS =   0.1000000E+31
 MINIMUM SATURATED THICKNESS [THKMIN] ALLOWED =  0.0100000 OF TOTAL CELL THICKNESS


 OUTPUT CONTROL OPTIONS
 ----------------------

 DO NOT PRINT CELL CONCENTRATION
 DO NOT PRINT PARTICLE NUMBER IN EACH CELL
 DO NOT PRINT RETARDATION FACTOR
 DO NOT PRINT DISPERSION COEFFICIENT
 SAVE DISSOLVED PHASE CONCENTRATIONS IN UNFORMATTED FILES [MT3Dnnn.UCN]
  FOR EACH SPECIES ON UNITS 201 AND ABOVE

 NUMBER OF TIMES AT WHICH SIMULATION RESULTS ARE SAVED =  120
 TOTAL ELAPSED TIMES AT WHICH SIMULATION RESULTS ARE SAVED: 
    0.0000      0.68333       1.3667       2.0500       2.7333       3.4167       4.1000       4.7833    
    5.4667       6.1500       6.8333       7.5167       8.2000       8.8833       9.5667       10.250    
    10.933       11.617       12.300       12.983       13.667       14.350       15.033       15.717    
    16.400       17.083       17.767       18.450       19.133       19.817       20.500       21.183    
    21.867       22.550       23.233       23.917       24.600       25.283       25.967       26.650    
    27.333       28.017       28.700       29.383       30.067       30.750       31.433       32.117    
    32.800       33.483       34.167       34.850       35.533       36.217       36.900       37.583    
    38.267       38.950       39.633       40.317       41.000       41.683       42.367       43.050    
    43.733       44.417       45.100       45.783       46.467       47.150       47.833       48.517    
    49.200       49.883       50.567       51.250       51.933       52.617       53.300       53.983    
    54.667       55.350       56.033       56.717       57.400       58.083       58.767       59.450    
    60.133       60.817       61.500       62.183       62.867       63.550       64.233       64.917    
    65.600       66.283       66.967       67.650       68.333       69.017       69.700       70.383    
    71.067       71.750       72.433       73.117       73.800       74.483       75.167       75.850    
    76.533       77.217       77.900       78.583       79.267       79.950       80.633       81.317    


 NUMBER OF OBSERVATION POINTS =    0

 SAVE ONE-LINE SUMMARY OF MASS BUDGETS IN FILES [MT3Dnnn.MAS]
  FOR EACH SPECIES ON UNITS 601 AND ABOVE, EVERY  1 TRANSPORT STEPS

 MAXIMUM LENGTH ALONG THE X (J) AXIS =   9.782224    
 MAXIMUM LENGTH ALONG THE Y (I) AXIS =   4.776000    
 MAXIMUM LENGTH ALONG THE Z (K) AXIS =   4.658200    
 FMI1 -- FLOW MODEL INTERFACE PACKAGE, VERSION 1, MAY 2016, INPUT READ FROM UNIT 10
 FLOW MODEL IS STEADY-STATE
 FLOW MODEL CONTAINS CONSTANT-HEAD CELLS


 ADV1 -- ADVECTION PACKAGE, VERSION 1, MAY 2016, INPUT READ FROM UNIT 32
 ADVECTION IS SOLVED WITH THE ULTIMATE SCHEME
 COURANT NUMBER ALLOWED IN SOLVING THE ADVECTION TERM = 0.750    


 ADVECTION SOLUTION OPTIONS
 --------------------------

 ADVECTION IS SOLVED WITH THE ULTIMATE SCHEME
 COURANT NUMBER ALLOWED IN SOLVING THE ADVECTION TERM = 0.750    

 DSP1 -- DISPERSION PACKAGE, VERSION 1, MAY 2016, INPUT READ FROM UNIT 33


 DISPERSION INPUT PARAMETERS
 ---------------------------

                                       LONG. DISPERSIVITY (AL)  =  0.2000000E-01 FOR LAYER  1
                                       LONG. DISPERSIVITY (AL)  =  0.2000000E-01 FOR LAYER  2
                                       LONG. DISPERSIVITY (AL)  =  0.2000000E-01 FOR LAYER  3
                                       LONG. DISPERSIVITY (AL)  =  0.2000000E-01 FOR LAYER  4
                                       LONG. DISPERSIVITY (AL)  =  0.2000000E-01 FOR LAYER  5
                                       LONG. DISPERSIVITY (AL)  =  0.2000000E-01 FOR LAYER  6
                                       LONG. DISPERSIVITY (AL)  =  0.2000000E-01 FOR LAYER  7
                                       LONG. DISPERSIVITY (AL)  =  0.2000000E-01 FOR LAYER  8
                                       LONG. DISPERSIVITY (AL)  =  0.2000000E-01 FOR LAYER  9
                                       LONG. DISPERSIVITY (AL)  =  0.2000000E-01 FOR LAYER 10
                                       LONG. DISPERSIVITY (AL)  =  0.2000000E-01 FOR LAYER 11
                                       LONG. DISPERSIVITY (AL)  =  0.2000000E-01 FOR LAYER 12
                                       LONG. DISPERSIVITY (AL)  =  0.2000000E-01 FOR LAYER 13
                                       LONG. DISPERSIVITY (AL)  =  0.2000000E-01 FOR LAYER 14
                                       LONG. DISPERSIVITY (AL)  =  0.2000000E-01 FOR LAYER 15
                                       LONG. DISPERSIVITY (AL)  =  0.2000000E-01 FOR LAYER 16
                                       LONG. DISPERSIVITY (AL)  =  0.2000000E-01 FOR LAYER 17
                                       LONG. DISPERSIVITY (AL)  =  0.2000000E-01 FOR LAYER 18
                                       LONG. DISPERSIVITY (AL)  =  0.2000000E-01 FOR LAYER 19
                                       LONG. DISPERSIVITY (AL)  =  0.2000000E-01 FOR LAYER 20
                                       H. TRANS./LONG. DISP.    =  0.3000000    
                                       V. TRANS./LONG. DISP.    =  0.1000000E-01
                                       DIFFUSION COEFFICIENT    =  0.1000000E-08

 SSM1 -- SINK & SOURCE MIXING PACKAGE, VERSION 1, MAY 2016, INPUT READ FROM UNIT 34
 HEADER LINE OF THE SSM PACKAGE INPUT FILE:
  T F F F F F F F F F F F F F F F                                        
 MAJOR STRESS COMPONENTS PRESENT IN THE FLOW MODEL:
  o WELL [WEL]
 MAXIMUM NUMBER OF POINT SINKS/SOURCES =     648

 GCG1 -- GENERALIZED CONJUGATE GRADIENT SOLVER PACKAGE, VERSION 1, OCTOBER 2010 INPUT READ FROM UNIT 35
 MAXIMUM OF    1 OUTER ITERATIONS
        AND   50 INNER ITERATIONS ALLOWED FOR CLOSURE
 THE PRECONDITIONING TYPE SELECTED IS MODIFIED INCOMPLETE CHOLESKY (MIC).
 DISPERSION CROSS TERMS LUMPED INTO RIGHT-HAND-SIDE



                                               SOLUTION BY THE GENERALIZED CONJUGATE GRADIENT METHOD
                                               -----------------------------------------------------
                                     MAXIMUM OUTER ITERATIONS ALLOWED FOR CLOSURE =        1
                                     MAXIMUM INNER ITERATIONS ALLOWED FOR CLOSURE =       50
                                                    PRECONDITIONING TYPE SELECTED =    3
                                                           ACCELERATION PARAMETER =     1.0000    
                                       CONCENTRATION CHANGE CRITERION FOR CLOSURE =    0.10000E-04
                                       GCG CONCENTRATION CHANGE PRINTOUT INTERVAL =      999


                                   ++++++++++++++++++++++++++++++++++++++++++++++++++++++++++++++
                                                       STRESS PERIOD NO.  001
                                   ++++++++++++++++++++++++++++++++++++++++++++++++++++++++++++++


 LENGTH OF CURRENT STRESS PERIOD =   2.000000    
 NUMBER OF TIME STEPS FOR CURRENT STRESS PERIOD =    1
 TIME STEP MULTIPLIER USED IN FLOW SOLUTION =   1.000000    

 ***Type of Transport Simulation is TRANSIENT

 USER-SPECIFIED TRANSPORT STEPSIZE =   0.000000    M   
 MAXIMUM NUMBER OF TRANSPORT STEPS ALLOWED  IN ONE FLOW TIME STEP =     50000
 MULTIPLIER FOR SUCCESSIVE TRANSPORT STEPS  [USED IN IMPLICIT SCHEMES] =     1.000
 MAXIMUM TRANSPORT STEP SIZE  [USED IN IMPLICIT SCHEMES] =   0.000000    M   

       NO    LAYER   ROW   COLUMN   CONCENTRATION       TYPE            COMPONENT
       1       1       8       1       1.000000         WELL                1
       2       1       9       1       1.000000         WELL                1
       3       1      10       1       1.000000         WELL                1
       4       1      11       1       1.000000         WELL                1
       5       1      12       1       1.000000         WELL                1
       6       1      13       1       1.000000         WELL                1
       7       2       6       1       1.000000         WELL                1
       8       2       7       1       1.000000         WELL                1
       9       2       8       1       1.000000         WELL                1
      10       2       9       1       1.000000         WELL                1
      11       2      10       1       1.000000         WELL                1
      12       2      11       1       1.000000         WELL                1
      13       2      12       1       1.000000         WELL                1
      14       2      13       1       1.000000         WELL                1
      15       2      14       1       1.000000         WELL                1
      16       2      15       1       1.000000         WELL                1
      17       3       4       1       1.000000         WELL                1
      18       3       5       1       1.000000         WELL                1
      19       3       6       1       1.000000         WELL                1
      20       3       7       1       1.000000         WELL                1
      21       3       8       1       1.000000         WELL                1
      22       3       9       1       1.000000         WELL                1
      23       3      10       1       1.000000         WELL                1
      24       3      11       1       1.000000         WELL                1
      25       3      12       1       1.000000         WELL                1
      26       3      13       1       1.000000         WELL                1
      27       3      14       1       1.000000         WELL                1
      28       3      15       1       1.000000         WELL                1
      29       3      16       1       1.000000         WELL                1
      30       3      17       1       1.000000         WELL                1
      31       4       3       1       1.000000         WELL                1
      32       4       4       1       1.000000         WELL                1
      33       4       5       1       1.000000         WELL                1
      34       4       6       1       1.000000         WELL                1
      35       4       7       1       1.000000         WELL                1
      36       4       8       1       1.000000         WELL                1
      37       4       9       1       1.000000         WELL                1
      38       4      10       1       1.000000         WELL                1
      39       4      11       1       1.000000         WELL                1
      40       4      12       1       1.000000         WELL                1
      41       4      13       1       1.000000         WELL                1
      42       4      14       1       1.000000         WELL                1
      43       4      15       1       1.000000         WELL                1
      44       4      16       1       1.000000         WELL                1
      45       4      17       1       1.000000         WELL                1
      46       4      18       1       1.000000         WELL                1
      47       5       2       1       1.000000         WELL                1
      48       5       3       1       1.000000         WELL                1
      49       5       4       1       1.000000         WELL                1
      50       5       5       1       1.000000         WELL                1
      51       5       6       1       1.000000         WELL                1
      52       5       7       1       1.000000         WELL                1
      53       5       8       1       1.000000         WELL                1
      54       5       9       1       1.000000         WELL                1
      55       5      10       1       1.000000         WELL                1
      56       5      11       1       1.000000         WELL                1
      57       5      12       1       1.000000         WELL                1
      58       5      13       1       1.000000         WELL                1
      59       5      14       1       1.000000         WELL                1
      60       5      15       1       1.000000         WELL                1
      61       5      16       1       1.000000         WELL                1
      62       5      17       1       1.000000         WELL                1
      63       5      18       1       1.000000         WELL                1
      64       5      19       1       1.000000         WELL                1
      65       6       2       1       1.000000         WELL                1
      66       6       3       1       1.000000         WELL                1
      67       6       4       1       1.000000         WELL                1
      68       6       5       1       1.000000         WELL                1
      69       6       6       1       1.000000         WELL                1
      70       6       7       1       1.000000         WELL                1
      71       6       8       1       1.000000         WELL                1
      72       6       9       1       1.000000         WELL                1
      73       6      10       1       1.000000         WELL                1
      74       6      11       1       1.000000         WELL                1
      75       6      12       1       1.000000         WELL                1
      76       6      13       1       1.000000         WELL                1
      77       6      14       1       1.000000         WELL                1
      78       6      15       1       1.000000         WELL                1
      79       6      16       1       1.000000         WELL                1
      80       6      17       1       1.000000         WELL                1
      81       6      18       1       1.000000         WELL                1
      82       6      19       1       1.000000         WELL                1
      83       7       1       1       1.000000         WELL                1
      84       7       2       1       1.000000         WELL                1
      85       7       3       1       1.000000         WELL                1
      86       7       4       1       1.000000         WELL                1
      87       7       5       1       1.000000         WELL                1
      88       7       6       1       1.000000         WELL                1
      89       7       7       1       1.000000         WELL                1
      90       7       8       1       1.000000         WELL                1
      91       7       9       1       1.000000         WELL                1
      92       7      10       1       1.000000         WELL                1
      93       7      11       1       1.000000         WELL                1
      94       7      12       1       1.000000         WELL                1
      95       7      13       1       1.000000         WELL                1
      96       7      14       1       1.000000         WELL                1
      97       7      15       1       1.000000         WELL                1
      98       7      16       1       1.000000         WELL                1
      99       7      17       1       1.000000         WELL                1
     100       7      18       1       1.000000         WELL                1
     101       7      19       1       1.000000         WELL                1
     102       7      20       1       1.000000         WELL                1
     103       8       1       1       1.000000         WELL                1
     104       8       2       1       1.000000         WELL                1
     105       8       3       1       1.000000         WELL                1
     106       8       4       1       1.000000         WELL                1
     107       8       5       1       1.000000         WELL                1
     108       8       6       1       1.000000         WELL                1
     109       8       7       1       1.000000         WELL                1
     110       8       8       1       1.000000         WELL                1
     111       8       9       1       1.000000         WELL                1
     112       8      10       1       1.000000         WELL                1
     113       8      11       1       1.000000         WELL                1
     114       8      12       1       1.000000         WELL                1
     115       8      13       1       1.000000         WELL                1
     116       8      14       1       1.000000         WELL                1
     117       8      15       1       1.000000         WELL                1
     118       8      16       1       1.000000         WELL                1
     119       8      17       1       1.000000         WELL                1
     120       8      18       1       1.000000         WELL                1
     121       8      19       1       1.000000         WELL                1
     122       8      20       1       1.000000         WELL                1
     123       9       1       1       1.000000         WELL                1
     124       9       2       1       1.000000         WELL                1
     125       9       3       1       1.000000         WELL                1
     126       9       4       1       1.000000         WELL                1
     127       9       5       1       1.000000         WELL                1
     128       9       6       1       1.000000         WELL                1
     129       9       7       1       1.000000         WELL                1
     130       9       8       1       1.000000         WELL                1
     131       9       9       1       1.000000         WELL                1
     132       9      10       1       1.000000         WELL                1
     133       9      11       1       1.000000         WELL                1
     134       9      12       1       1.000000         WELL                1
     135       9      13       1       1.000000         WELL                1
     136       9      14       1       1.000000         WELL                1
     137       9      15       1       1.000000         WELL                1
     138       9      16       1       1.000000         WELL                1
     139       9      17       1       1.000000         WELL                1
     140       9      18       1       1.000000         WELL                1
     141       9      19       1       1.000000         WELL                1
     142       9      20       1       1.000000         WELL                1
     143      10       1       1       1.000000         WELL                1
     144      10       2       1       1.000000         WELL                1
     145      10       3       1       1.000000         WELL                1
     146      10       4       1       1.000000         WELL                1
     147      10       5       1       1.000000         WELL                1
     148      10       6       1       1.000000         WELL                1
     149      10       7       1       1.000000         WELL                1
     150      10       8       1       1.000000         WELL                1
     151      10       9       1       1.000000         WELL                1
     152      10      10       1       1.000000         WELL                1
     153      10      11       1       1.000000         WELL                1
     154      10      12       1       1.000000         WELL                1
     155      10      13       1       1.000000         WELL                1
     156      10      14       1       1.000000         WELL                1
     157      10      15       1       1.000000         WELL                1
     158      10      16       1       1.000000         WELL                1
     159      10      17       1       1.000000         WELL                1
     160      10      18       1       1.000000         WELL                1
     161      10      19       1       1.000000         WELL                1
     162      10      20       1       1.000000         WELL                1
     163      11       1       1       1.000000         WELL                1
     164      11       2       1       1.000000         WELL                1
     165      11       3       1       1.000000         WELL                1
     166      11       4       1       1.000000         WELL                1
     167      11       5       1       1.000000         WELL                1
     168      11       6       1       1.000000         WELL                1
     169      11       7       1       1.000000         WELL                1
     170      11       8       1       1.000000         WELL                1
     171      11       9       1       1.000000         WELL                1
     172      11      10       1       1.000000         WELL                1
     173      11      11       1       1.000000         WELL                1
     174      11      12       1       1.000000         WELL                1
     175      11      13       1       1.000000         WELL                1
     176      11      14       1       1.000000         WELL                1
     177      11      15       1       1.000000         WELL                1
     178      11      16       1       1.000000         WELL                1
     179      11      17       1       1.000000         WELL                1
     180      11      18       1       1.000000         WELL                1
     181      11      19       1       1.000000         WELL                1
     182      11      20       1       1.000000         WELL                1
     183      12       1       1       1.000000         WELL                1
     184      12       2       1       1.000000         WELL                1
     185      12       3       1       1.000000         WELL                1
     186      12       4       1       1.000000         WELL                1
     187      12       5       1       1.000000         WELL                1
     188      12       6       1       1.000000         WELL                1
     189      12       7       1       1.000000         WELL                1
     190      12       8       1       1.000000         WELL                1
     191      12       9       1       1.000000         WELL                1
     192      12      10       1       1.000000         WELL                1
     193      12      11       1       1.000000         WELL                1
     194      12      12       1       1.000000         WELL                1
     195      12      13       1       1.000000         WELL                1
     196      12      14       1       1.000000         WELL                1
     197      12      15       1       1.000000         WELL                1
     198      12      16       1       1.000000         WELL                1
     199      12      17       1       1.000000         WELL                1
     200      12      18       1       1.000000         WELL                1
     201      12      19       1       1.000000         WELL                1
     202      12      20       1       1.000000         WELL                1
     203      13       1       1       1.000000         WELL                1
     204      13       2       1       1.000000         WELL                1
     205      13       3       1       1.000000         WELL                1
     206      13       4       1       1.000000         WELL                1
     207      13       5       1       1.000000         WELL                1
     208      13       6       1       1.000000         WELL                1
     209      13       7       1       1.000000         WELL                1
     210      13       8       1       1.000000         WELL                1
     211      13       9       1       1.000000         WELL                1
     212      13      10       1       1.000000         WELL                1
     213      13      11       1       1.000000         WELL                1
     214      13      12       1       1.000000         WELL                1
     215      13      13       1       1.000000         WELL                1
     216      13      14       1       1.000000         WELL                1
     217      13      15       1       1.000000         WELL                1
     218      13      16       1       1.000000         WELL                1
     219      13      17       1       1.000000         WELL                1
     220      13      18       1       1.000000         WELL                1
     221      13      19       1       1.000000         WELL                1
     222      13      20       1       1.000000         WELL                1
     223      14       1       1       1.000000         WELL                1
     224      14       2       1       1.000000         WELL                1
     225      14       3       1       1.000000         WELL                1
     226      14       4       1       1.000000         WELL                1
     227      14       5       1       1.000000         WELL                1
     228      14       6       1       1.000000         WELL                1
     229      14       7       1       1.000000         WELL                1
     230      14       8       1       1.000000         WELL                1
     231      14       9       1       1.000000         WELL                1
     232      14      10       1       1.000000         WELL                1
     233      14      11       1       1.000000         WELL                1
     234      14      12       1       1.000000         WELL                1
     235      14      13       1       1.000000         WELL                1
     236      14      14       1       1.000000         WELL                1
     237      14      15       1       1.000000         WELL                1
     238      14      16       1       1.000000         WELL                1
     239      14      17       1       1.000000         WELL                1
     240      14      18       1       1.000000         WELL                1
     241      14      19       1       1.000000         WELL                1
     242      14      20       1       1.000000         WELL                1
     243      15       2       1       1.000000         WELL                1
     244      15       3       1       1.000000         WELL                1
     245      15       4       1       1.000000         WELL                1
     246      15       5       1       1.000000         WELL                1
     247      15       6       1       1.000000         WELL                1
     248      15       7       1       1.000000         WELL                1
     249      15       8       1       1.000000         WELL                1
     250      15       9       1       1.000000         WELL                1
     251      15      10       1       1.000000         WELL                1
     252      15      11       1       1.000000         WELL                1
     253      15      12       1       1.000000         WELL                1
     254      15      13       1       1.000000         WELL                1
     255      15      14       1       1.000000         WELL                1
     256      15      15       1       1.000000         WELL                1
     257      15      16       1       1.000000         WELL                1
     258      15      17       1       1.000000         WELL                1
     259      15      18       1       1.000000         WELL                1
     260      15      19       1       1.000000         WELL                1
     261      16       2       1       1.000000         WELL                1
     262      16       3       1       1.000000         WELL                1
     263      16       4       1       1.000000         WELL                1
     264      16       5       1       1.000000         WELL                1
     265      16       6       1       1.000000         WELL                1
     266      16       7       1       1.000000         WELL                1
     267      16       8       1       1.000000         WELL                1
     268      16       9       1       1.000000         WELL                1
     269      16      10       1       1.000000         WELL                1
     270      16      11       1       1.000000         WELL                1
     271      16      12       1       1.000000         WELL                1
     272      16      13       1       1.000000         WELL                1
     273      16      14       1       1.000000         WELL                1
     274      16      15       1       1.000000         WELL                1
     275      16      16       1       1.000000         WELL                1
     276      16      17       1       1.000000         WELL                1
     277      16      18       1       1.000000         WELL                1
     278      16      19       1       1.000000         WELL                1
     279      17       3       1       1.000000         WELL                1
     280      17       4       1       1.000000         WELL                1
     281      17       5       1       1.000000         WELL                1
     282      17       6       1       1.000000         WELL                1
     283      17       7       1       1.000000         WELL                1
     284      17       8       1       1.000000         WELL                1
     285      17       9       1       1.000000         WELL                1
     286      17      10       1       1.000000         WELL                1
     287      17      11       1       1.000000         WELL                1
     288      17      12       1       1.000000         WELL                1
     289      17      13       1       1.000000         WELL                1
     290      17      14       1       1.000000         WELL                1
     291      17      15       1       1.000000         WELL                1
     292      17      16       1       1.000000         WELL                1
     293      17      17       1       1.000000         WELL                1
     294      17      18       1       1.000000         WELL                1
     295      18       4       1       1.000000         WELL                1
     296      18       5       1       1.000000         WELL                1
     297      18       6       1       1.000000         WELL                1
     298      18       7       1       1.000000         WELL                1
     299      18       8       1       1.000000         WELL                1
     300      18       9       1       1.000000         WELL                1
     301      18      10       1       1.000000         WELL                1
     302      18      11       1       1.000000         WELL                1
     303      18      12       1       1.000000         WELL                1
     304      18      13       1       1.000000         WELL                1
     305      18      14       1       1.000000         WELL                1
     306      18      15       1       1.000000         WELL                1
     307      18      16       1       1.000000         WELL                1
     308      18      17       1       1.000000         WELL                1
     309      19       6       1       1.000000         WELL                1
     310      19       7       1       1.000000         WELL                1
     311      19       8       1       1.000000         WELL                1
     312      19       9       1       1.000000         WELL                1
     313      19      10       1       1.000000         WELL                1
     314      19      11       1       1.000000         WELL                1
     315      19      12       1       1.000000         WELL                1
     316      19      13       1       1.000000         WELL                1
     317      19      14       1       1.000000         WELL                1
     318      19      15       1       1.000000         WELL                1
     319      20       8       1       1.000000         WELL                1
     320      20       9       1       1.000000         WELL                1
     321      20      10       1       1.000000         WELL                1
     322      20      11       1       1.000000         WELL                1
     323      20      12       1       1.000000         WELL                1
     324      20      13       1       1.000000         WELL                1


                                          ================================================
                                                         TIME STEP NO.  001
                                          ================================================

 FROM TIME =   0.0000     TO    2.0000    


                    "THKSAT          " FLOW TERMS FOR TIME STEP  1, STRESS PERIOD  1 READ UNFORMATTED ON UNIT 10
                    --------------------------------------------------------------------------------------------

                    "QXX             " FLOW TERMS FOR TIME STEP  1, STRESS PERIOD  1 READ UNFORMATTED ON UNIT 10
                    --------------------------------------------------------------------------------------------

                    "QYY             " FLOW TERMS FOR TIME STEP  1, STRESS PERIOD  1 READ UNFORMATTED ON UNIT 10
                    --------------------------------------------------------------------------------------------

                    "QZZ             " FLOW TERMS FOR TIME STEP  1, STRESS PERIOD  1 READ UNFORMATTED ON UNIT 10
                    --------------------------------------------------------------------------------------------

 MAXIMUM STEPSIZE DURING WHICH ANY PARTICLE CANNOT MOVE MORE THAN ONE CELL
 = 0.4337    (WHEN MIN. R.F.=1)  AT K=  19, I=  15, J=  11

 MAXIMUM STEPSIZE WHICH MEETS STABILITY CRITERION OF THE ADVECTION TERM
 (FOR PURE FINITE-DIFFERENCE OPTION, MIXELM=0) 
 = 0.3742    (WHEN MIN. R.F.=1)  AT K=  16, I=  12, J=   2

                    "CNH             " FLOW TERMS FOR TIME STEP  1, STRESS PERIOD  1 READ UNFORMATTED ON UNIT 10
                    --------------------------------------------------------------------------------------------

                    "WEL             " FLOW TERMS FOR TIME STEP  1, STRESS PERIOD  1 READ UNFORMATTED ON UNIT 10
                    --------------------------------------------------------------------------------------------


 TOTAL NUMBER OF POINT SOURCES/SINKS PRESENT IN THE FLOW MODEL =   648

 MAXIMUM STEPSIZE WHICH MEETS STABILITY CRITERION OF THE SINK & SOURCE TERM
 = 0.6050    (WHEN MIN. R.F.=1)  AT K=   1, I=   8, J=   1

 MAXIMUM STEPSIZE WHICH MEETS STABILITY CRITERION OF THE DISPERSION TERM
 =  2.032    (WHEN MIN. R.F.=1)  AT K=  19, I=  14, J=   9



 >>>>>>>>>>>>>>>>>>>>>>>>>>>>>>>>>>>>>>>>>>>>>>>>>>>>>>>FOR COMPONENT NO. 01<<<<<<<<<<<<<<<<<<<<<<<<<<<<<<<<<<<<<<<<<<<<<<<<<<<<<<<


                                            -------------------------------------------
                                                      TRANSPORT STEP NO.    1
                                            -------------------------------------------

 TOTAL ELAPSED TIME SINCE BEGINNING OF SIMULATION =   0.000000    M   
 .....................................................................

                     CUMULATIVE MASS BUDGETS AT END OF TRANSPORT STEP    1, TIME STEP    1, STRESS PERIOD    1
                     -----------------------------------------------------------------------------------------

                                                             IN                           OUT
                                                      ----------------             ----------------
                               CONSTANT CONCENTRATION:    0.000000                    0.000000    
                                        CONSTANT HEAD:    0.000000                    0.000000    
                                                WELLS:    0.000000                    0.000000    
                               MASS STOR (FLOW MODEL):    0.000000                    0.000000    
                                MASS STORAGE (SOLUTE):    0.000000                    0.000000    
                            ---------------------------------------------------------------------------
                                              [TOTAL]:    0.000000     KG             0.000000     KG  

                                                          NET (IN - OUT):    0.000000    
                                                   DISCREPANCY (PERCENT):    0.000000    
     1 CALLS TO GCG PACKAGE FOR TRANSPORT TIME STEP     2 IN FLOW TIME STEP     1 STRESS PERIOD     1
      3 TOTAL ITERATIONS
     1 CALLS TO GCG PACKAGE FOR TRANSPORT TIME STEP     3 IN FLOW TIME STEP     1 STRESS PERIOD     1
      3 TOTAL ITERATIONS
     1 CALLS TO GCG PACKAGE FOR TRANSPORT TIME STEP     4 IN FLOW TIME STEP     1 STRESS PERIOD     1
      3 TOTAL ITERATIONS



 >>>>>>>>>>>>>>>>>>>>>>>>>>>>>>>>>>>>>>>>>>>>>>>>>>>>>>>FOR COMPONENT NO. 01<<<<<<<<<<<<<<<<<<<<<<<<<<<<<<<<<<<<<<<<<<<<<<<<<<<<<<<


                                            -------------------------------------------
                                                      TRANSPORT STEP NO.    4
                                            -------------------------------------------

 TOTAL ELAPSED TIME SINCE BEGINNING OF SIMULATION =  0.6833300    M   
 .....................................................................

                     CUMULATIVE MASS BUDGETS AT END OF TRANSPORT STEP    4, TIME STEP    1, STRESS PERIOD    1
                     -----------------------------------------------------------------------------------------

                                                             IN                           OUT
                                                      ----------------             ----------------
                               CONSTANT CONCENTRATION:    0.000000                    0.000000    
                                        CONSTANT HEAD:    0.000000                    0.000000    
                                                WELLS:    1.185159                    0.000000    
                               MASS STOR (FLOW MODEL):    0.000000                    0.000000    
                                MASS STORAGE (SOLUTE):    0.000000                   -1.185158    
                            ---------------------------------------------------------------------------
                                              [TOTAL]:    1.185159     KG            -1.185158     KG  

                                                          NET (IN - OUT):   0.5960464E-06
                                                   DISCREPANCY (PERCENT):   0.5029256E-04
     1 CALLS TO GCG PACKAGE FOR TRANSPORT TIME STEP     5 IN FLOW TIME STEP     1 STRESS PERIOD     1
      3 TOTAL ITERATIONS
     1 CALLS TO GCG PACKAGE FOR TRANSPORT TIME STEP     6 IN FLOW TIME STEP     1 STRESS PERIOD     1
      3 TOTAL ITERATIONS
     1 CALLS TO GCG PACKAGE FOR TRANSPORT TIME STEP     7 IN FLOW TIME STEP     1 STRESS PERIOD     1
      3 TOTAL ITERATIONS



 >>>>>>>>>>>>>>>>>>>>>>>>>>>>>>>>>>>>>>>>>>>>>>>>>>>>>>>FOR COMPONENT NO. 01<<<<<<<<<<<<<<<<<<<<<<<<<<<<<<<<<<<<<<<<<<<<<<<<<<<<<<<


                                            -------------------------------------------
                                                      TRANSPORT STEP NO.    7
                                            -------------------------------------------

 TOTAL ELAPSED TIME SINCE BEGINNING OF SIMULATION =   1.366700    M   
 .....................................................................

                     CUMULATIVE MASS BUDGETS AT END OF TRANSPORT STEP    7, TIME STEP    1, STRESS PERIOD    1
                     -----------------------------------------------------------------------------------------

                                                             IN                           OUT
                                                      ----------------             ----------------
                               CONSTANT CONCENTRATION:    0.000000                    0.000000    
                                        CONSTANT HEAD:    0.000000                    0.000000    
                                                WELLS:    2.370388                    0.000000    
                               MASS STOR (FLOW MODEL):    0.000000                    0.000000    
                                MASS STORAGE (SOLUTE):    0.000000                   -2.370387    
                            ---------------------------------------------------------------------------
                                              [TOTAL]:    2.370388     KG            -2.370387     KG  

                                                          NET (IN - OUT):   0.2384186E-06
                                                   DISCREPANCY (PERCENT):   0.1005821E-04
     1 CALLS TO GCG PACKAGE FOR TRANSPORT TIME STEP     8 IN FLOW TIME STEP     1 STRESS PERIOD     1
      3 TOTAL ITERATIONS
     1 CALLS TO GCG PACKAGE FOR TRANSPORT TIME STEP     9 IN FLOW TIME STEP     1 STRESS PERIOD     1
      3 TOTAL ITERATIONS
     1 CALLS TO GCG PACKAGE FOR TRANSPORT TIME STEP    10 IN FLOW TIME STEP     1 STRESS PERIOD     1
      2 TOTAL ITERATIONS
  MAXIMUM CONCENTRATION CHANGES FOR EACH ITERATION:
  MAX. CHANGE LAYER,ROW,COL MAX. CHANGE LAYER,ROW,COL MAX. CHANGE LAYER,ROW,COL MAX. CHANGE LAYER,ROW,COL MAX. CHANGE LAYER,ROW,COL
 ------------------------------------------------------------------------------------------------------------------------------------
   0.1254     (  7,  1,  1)  0.3994E-05 ( 19,  6,  2)



 >>>>>>>>>>>>>>>>>>>>>>>>>>>>>>>>>>>>>>>>>>>>>>>>>>>>>>>FOR COMPONENT NO. 01<<<<<<<<<<<<<<<<<<<<<<<<<<<<<<<<<<<<<<<<<<<<<<<<<<<<<<<


                                            -------------------------------------------
                                                      TRANSPORT STEP NO.   10
                                            -------------------------------------------

 TOTAL ELAPSED TIME SINCE BEGINNING OF SIMULATION =   2.000000    M   
 .....................................................................

                     CUMULATIVE MASS BUDGETS AT END OF TRANSPORT STEP   10, TIME STEP    1, STRESS PERIOD    1
                     -----------------------------------------------------------------------------------------

                                                             IN                           OUT
                                                      ----------------             ----------------
                               CONSTANT CONCENTRATION:    0.000000                    0.000000    
                                        CONSTANT HEAD:    0.000000                    0.000000    
                                                WELLS:    3.468775                    0.000000    
                               MASS STOR (FLOW MODEL):    0.000000                    0.000000    
                                MASS STORAGE (SOLUTE):    0.000000                   -3.468775    
                            ---------------------------------------------------------------------------
                                              [TOTAL]:    3.468775     KG            -3.468775     KG  

                                                          NET (IN - OUT):  -0.7152557E-06
                                                   DISCREPANCY (PERCENT):  -0.2061984E-04


                                   ++++++++++++++++++++++++++++++++++++++++++++++++++++++++++++++
                                                       STRESS PERIOD NO.  002
                                   ++++++++++++++++++++++++++++++++++++++++++++++++++++++++++++++


 LENGTH OF CURRENT STRESS PERIOD =   80.00000    
 NUMBER OF TIME STEPS FOR CURRENT STRESS PERIOD =    1
 TIME STEP MULTIPLIER USED IN FLOW SOLUTION =   1.000000    

 ***Type of Transport Simulation is TRANSIENT

 USER-SPECIFIED TRANSPORT STEPSIZE =   0.000000    M   
 MAXIMUM NUMBER OF TRANSPORT STEPS ALLOWED  IN ONE FLOW TIME STEP =     50000
 MULTIPLIER FOR SUCCESSIVE TRANSPORT STEPS  [USED IN IMPLICIT SCHEMES] =     1.000
 MAXIMUM TRANSPORT STEP SIZE  [USED IN IMPLICIT SCHEMES] =   0.000000    M   

       NO    LAYER   ROW   COLUMN   CONCENTRATION       TYPE            COMPONENT


                                          ================================================
                                                         TIME STEP NO.  001
                                          ================================================

 FROM TIME =   2.0000     TO    82.000    


                    "THKSAT          " FLOW TERMS FOR TIME STEP  1, STRESS PERIOD  2 READ UNFORMATTED ON UNIT 10
                    --------------------------------------------------------------------------------------------

                    "QXX             " FLOW TERMS FOR TIME STEP  1, STRESS PERIOD  2 READ UNFORMATTED ON UNIT 10
                    --------------------------------------------------------------------------------------------

                    "QYY             " FLOW TERMS FOR TIME STEP  1, STRESS PERIOD  2 READ UNFORMATTED ON UNIT 10
                    --------------------------------------------------------------------------------------------

                    "QZZ             " FLOW TERMS FOR TIME STEP  1, STRESS PERIOD  2 READ UNFORMATTED ON UNIT 10
                    --------------------------------------------------------------------------------------------

 MAXIMUM STEPSIZE DURING WHICH ANY PARTICLE CANNOT MOVE MORE THAN ONE CELL
 = 0.4337    (WHEN MIN. R.F.=1)  AT K=  19, I=  15, J=  11

 MAXIMUM STEPSIZE WHICH MEETS STABILITY CRITERION OF THE ADVECTION TERM
 (FOR PURE FINITE-DIFFERENCE OPTION, MIXELM=0) 
 = 0.3742    (WHEN MIN. R.F.=1)  AT K=  16, I=  12, J=   2

                    "CNH             " FLOW TERMS FOR TIME STEP  1, STRESS PERIOD  2 READ UNFORMATTED ON UNIT 10
                    --------------------------------------------------------------------------------------------

                    "WEL             " FLOW TERMS FOR TIME STEP  1, STRESS PERIOD  2 READ UNFORMATTED ON UNIT 10
                    --------------------------------------------------------------------------------------------


 TOTAL NUMBER OF POINT SOURCES/SINKS PRESENT IN THE FLOW MODEL =   648

 MAXIMUM STEPSIZE WHICH MEETS STABILITY CRITERION OF THE SINK & SOURCE TERM
 = 0.6050    (WHEN MIN. R.F.=1)  AT K=   1, I=   8, J=   1

 MAXIMUM STEPSIZE WHICH MEETS STABILITY CRITERION OF THE DISPERSION TERM
 =  2.032    (WHEN MIN. R.F.=1)  AT K=  19, I=  14, J=   9


     1 CALLS TO GCG PACKAGE FOR TRANSPORT TIME STEP     1 IN FLOW TIME STEP     1 STRESS PERIOD     2
      2 TOTAL ITERATIONS



 >>>>>>>>>>>>>>>>>>>>>>>>>>>>>>>>>>>>>>>>>>>>>>>>>>>>>>>FOR COMPONENT NO. 01<<<<<<<<<<<<<<<<<<<<<<<<<<<<<<<<<<<<<<<<<<<<<<<<<<<<<<<


                                            -------------------------------------------
                                                      TRANSPORT STEP NO.    1
                                            -------------------------------------------

 TOTAL ELAPSED TIME SINCE BEGINNING OF SIMULATION =   2.050000    M   
 .....................................................................

                     CUMULATIVE MASS BUDGETS AT END OF TRANSPORT STEP    1, TIME STEP    1, STRESS PERIOD    2
                     -----------------------------------------------------------------------------------------

                                                             IN                           OUT
                                                      ----------------             ----------------
                               CONSTANT CONCENTRATION:    0.000000                    0.000000    
                                        CONSTANT HEAD:    0.000000                    0.000000    
                                                WELLS:    3.468775                    0.000000    
                               MASS STOR (FLOW MODEL):    0.000000                    0.000000    
                                MASS STORAGE (SOLUTE):   0.8446901E-01               -3.553244    
                            ---------------------------------------------------------------------------
                                              [TOTAL]:    3.553244     KG            -3.553244     KG  

                                                          NET (IN - OUT):  -0.4768372E-06
                                                   DISCREPANCY (PERCENT):  -0.1341977E-04
     1 CALLS TO GCG PACKAGE FOR TRANSPORT TIME STEP     2 IN FLOW TIME STEP     1 STRESS PERIOD     2
      3 TOTAL ITERATIONS
     1 CALLS TO GCG PACKAGE FOR TRANSPORT TIME STEP     3 IN FLOW TIME STEP     1 STRESS PERIOD     2
      3 TOTAL ITERATIONS
     1 CALLS TO GCG PACKAGE FOR TRANSPORT TIME STEP     4 IN FLOW TIME STEP     1 STRESS PERIOD     2
      2 TOTAL ITERATIONS



 >>>>>>>>>>>>>>>>>>>>>>>>>>>>>>>>>>>>>>>>>>>>>>>>>>>>>>>FOR COMPONENT NO. 01<<<<<<<<<<<<<<<<<<<<<<<<<<<<<<<<<<<<<<<<<<<<<<<<<<<<<<<


                                            -------------------------------------------
                                                      TRANSPORT STEP NO.    4
                                            -------------------------------------------

 TOTAL ELAPSED TIME SINCE BEGINNING OF SIMULATION =   2.733300    M   
 .....................................................................

                     CUMULATIVE MASS BUDGETS AT END OF TRANSPORT STEP    4, TIME STEP    1, STRESS PERIOD    2
                     -----------------------------------------------------------------------------------------

                                                             IN                           OUT
                                                      ----------------             ----------------
                               CONSTANT CONCENTRATION:    0.000000                    0.000000    
                                        CONSTANT HEAD:    0.000000                    0.000000    
                                                WELLS:    3.468775                    0.000000    
                               MASS STOR (FLOW MODEL):    0.000000                    0.000000    
                                MASS STORAGE (SOLUTE):    1.172600                   -4.641374    
                            ---------------------------------------------------------------------------
                                              [TOTAL]:    4.641375     KG            -4.641374     KG  

                                                          NET (IN - OUT):   0.4768372E-06
                                                   DISCREPANCY (PERCENT):   0.1027362E-04
     1 CALLS TO GCG PACKAGE FOR TRANSPORT TIME STEP     5 IN FLOW TIME STEP     1 STRESS PERIOD     2
      2 TOTAL ITERATIONS
     1 CALLS TO GCG PACKAGE FOR TRANSPORT TIME STEP     6 IN FLOW TIME STEP     1 STRESS PERIOD     2
      2 TOTAL ITERATIONS
     1 CALLS TO GCG PACKAGE FOR TRANSPORT TIME STEP     7 IN FLOW TIME STEP     1 STRESS PERIOD     2
      2 TOTAL ITERATIONS



 >>>>>>>>>>>>>>>>>>>>>>>>>>>>>>>>>>>>>>>>>>>>>>>>>>>>>>>FOR COMPONENT NO. 01<<<<<<<<<<<<<<<<<<<<<<<<<<<<<<<<<<<<<<<<<<<<<<<<<<<<<<<


                                            -------------------------------------------
                                                      TRANSPORT STEP NO.    7
                                            -------------------------------------------

 TOTAL ELAPSED TIME SINCE BEGINNING OF SIMULATION =   3.416700    M   
 .....................................................................

                     CUMULATIVE MASS BUDGETS AT END OF TRANSPORT STEP    7, TIME STEP    1, STRESS PERIOD    2
                     -----------------------------------------------------------------------------------------

                                                             IN                           OUT
                                                      ----------------             ----------------
                               CONSTANT CONCENTRATION:    0.000000                    0.000000    
                                        CONSTANT HEAD:    0.000000                    0.000000    
                                                WELLS:    3.468775                    0.000000    
                               MASS STOR (FLOW MODEL):    0.000000                    0.000000    
                                MASS STORAGE (SOLUTE):    2.182071                   -5.650843    
                            ---------------------------------------------------------------------------
                                              [TOTAL]:    5.650846     KG            -5.650843     KG  

                                                          NET (IN - OUT):   0.2861023E-05
                                                   DISCREPANCY (PERCENT):   0.5063001E-04
     1 CALLS TO GCG PACKAGE FOR TRANSPORT TIME STEP     8 IN FLOW TIME STEP     1 STRESS PERIOD     2
      2 TOTAL ITERATIONS
     1 CALLS TO GCG PACKAGE FOR TRANSPORT TIME STEP     9 IN FLOW TIME STEP     1 STRESS PERIOD     2
      2 TOTAL ITERATIONS
     1 CALLS TO GCG PACKAGE FOR TRANSPORT TIME STEP    10 IN FLOW TIME STEP     1 STRESS PERIOD     2
      2 TOTAL ITERATIONS



 >>>>>>>>>>>>>>>>>>>>>>>>>>>>>>>>>>>>>>>>>>>>>>>>>>>>>>>FOR COMPONENT NO. 01<<<<<<<<<<<<<<<<<<<<<<<<<<<<<<<<<<<<<<<<<<<<<<<<<<<<<<<


                                            -------------------------------------------
                                                      TRANSPORT STEP NO.   10
                                            -------------------------------------------

 TOTAL ELAPSED TIME SINCE BEGINNING OF SIMULATION =   4.100000    M   
 .....................................................................

                     CUMULATIVE MASS BUDGETS AT END OF TRANSPORT STEP   10, TIME STEP    1, STRESS PERIOD    2
                     -----------------------------------------------------------------------------------------

                                                             IN                           OUT
                                                      ----------------             ----------------
                               CONSTANT CONCENTRATION:    0.000000                    0.000000    
                                        CONSTANT HEAD:    0.000000                    0.000000    
                                                WELLS:    3.468775                    0.000000    
                               MASS STOR (FLOW MODEL):    0.000000                    0.000000    
                                MASS STORAGE (SOLUTE):    3.126709                   -6.595479    
                            ---------------------------------------------------------------------------
                                              [TOTAL]:    6.595483     KG            -6.595479     KG  

                                                          NET (IN - OUT):   0.4291534E-05
                                                   DISCREPANCY (PERCENT):   0.6506780E-04
     1 CALLS TO GCG PACKAGE FOR TRANSPORT TIME STEP    11 IN FLOW TIME STEP     1 STRESS PERIOD     2
      2 TOTAL ITERATIONS
     1 CALLS TO GCG PACKAGE FOR TRANSPORT TIME STEP    12 IN FLOW TIME STEP     1 STRESS PERIOD     2
      2 TOTAL ITERATIONS
     1 CALLS TO GCG PACKAGE FOR TRANSPORT TIME STEP    13 IN FLOW TIME STEP     1 STRESS PERIOD     2
      2 TOTAL ITERATIONS



 >>>>>>>>>>>>>>>>>>>>>>>>>>>>>>>>>>>>>>>>>>>>>>>>>>>>>>>FOR COMPONENT NO. 01<<<<<<<<<<<<<<<<<<<<<<<<<<<<<<<<<<<<<<<<<<<<<<<<<<<<<<<


                                            -------------------------------------------
                                                      TRANSPORT STEP NO.   13
                                            -------------------------------------------

 TOTAL ELAPSED TIME SINCE BEGINNING OF SIMULATION =   4.783300    M   
 .....................................................................

                     CUMULATIVE MASS BUDGETS AT END OF TRANSPORT STEP   13, TIME STEP    1, STRESS PERIOD    2
                     -----------------------------------------------------------------------------------------

                                                             IN                           OUT
                                                      ----------------             ----------------
                               CONSTANT CONCENTRATION:    0.000000                    0.000000    
                                        CONSTANT HEAD:    0.000000                    0.000000    
                                                WELLS:    3.468775                    0.000000    
                               MASS STOR (FLOW MODEL):    0.000000                    0.000000    
                                MASS STORAGE (SOLUTE):    4.023801                   -7.492571    
                            ---------------------------------------------------------------------------
                                              [TOTAL]:    7.492576     KG            -7.492571     KG  

                                                          NET (IN - OUT):   0.4291534E-05
                                                   DISCREPANCY (PERCENT):   0.5727717E-04
     1 CALLS TO GCG PACKAGE FOR TRANSPORT TIME STEP    14 IN FLOW TIME STEP     1 STRESS PERIOD     2
      3 TOTAL ITERATIONS
     1 CALLS TO GCG PACKAGE FOR TRANSPORT TIME STEP    15 IN FLOW TIME STEP     1 STRESS PERIOD     2
      3 TOTAL ITERATIONS
     1 CALLS TO GCG PACKAGE FOR TRANSPORT TIME STEP    16 IN FLOW TIME STEP     1 STRESS PERIOD     2
      2 TOTAL ITERATIONS



 >>>>>>>>>>>>>>>>>>>>>>>>>>>>>>>>>>>>>>>>>>>>>>>>>>>>>>>FOR COMPONENT NO. 01<<<<<<<<<<<<<<<<<<<<<<<<<<<<<<<<<<<<<<<<<<<<<<<<<<<<<<<


                                            -------------------------------------------
                                                      TRANSPORT STEP NO.   16
                                            -------------------------------------------

 TOTAL ELAPSED TIME SINCE BEGINNING OF SIMULATION =   5.466700    M   
 .....................................................................

                     CUMULATIVE MASS BUDGETS AT END OF TRANSPORT STEP   16, TIME STEP    1, STRESS PERIOD    2
                     -----------------------------------------------------------------------------------------

                                                             IN                           OUT
                                                      ----------------             ----------------
                               CONSTANT CONCENTRATION:    0.000000                    0.000000    
                                        CONSTANT HEAD:    0.000000                    0.000000    
                                                WELLS:    3.468775                    0.000000    
                               MASS STOR (FLOW MODEL):    0.000000                    0.000000    
                                MASS STORAGE (SOLUTE):    4.882316                   -8.351085    
                            ---------------------------------------------------------------------------
                                              [TOTAL]:    8.351090     KG            -8.351085     KG  

                                                          NET (IN - OUT):   0.5722046E-05
                                                   DISCREPANCY (PERCENT):   0.6851857E-04
     1 CALLS TO GCG PACKAGE FOR TRANSPORT TIME STEP    17 IN FLOW TIME STEP     1 STRESS PERIOD     2
      2 TOTAL ITERATIONS
     1 CALLS TO GCG PACKAGE FOR TRANSPORT TIME STEP    18 IN FLOW TIME STEP     1 STRESS PERIOD     2
      2 TOTAL ITERATIONS
     1 CALLS TO GCG PACKAGE FOR TRANSPORT TIME STEP    19 IN FLOW TIME STEP     1 STRESS PERIOD     2
      2 TOTAL ITERATIONS



 >>>>>>>>>>>>>>>>>>>>>>>>>>>>>>>>>>>>>>>>>>>>>>>>>>>>>>>FOR COMPONENT NO. 01<<<<<<<<<<<<<<<<<<<<<<<<<<<<<<<<<<<<<<<<<<<<<<<<<<<<<<<


                                            -------------------------------------------
                                                      TRANSPORT STEP NO.   19
                                            -------------------------------------------

 TOTAL ELAPSED TIME SINCE BEGINNING OF SIMULATION =   6.150000    M   
 .....................................................................

                     CUMULATIVE MASS BUDGETS AT END OF TRANSPORT STEP   19, TIME STEP    1, STRESS PERIOD    2
                     -----------------------------------------------------------------------------------------

                                                             IN                           OUT
                                                      ----------------             ----------------
                               CONSTANT CONCENTRATION:    0.000000                    0.000000    
                                        CONSTANT HEAD:    0.000000                    0.000000    
                                                WELLS:    3.468775                    0.000000    
                               MASS STOR (FLOW MODEL):    0.000000                    0.000000    
                                MASS STORAGE (SOLUTE):    5.706599                   -9.175365    
                            ---------------------------------------------------------------------------
                                              [TOTAL]:    9.175373     KG            -9.175365     KG  

                                                          NET (IN - OUT):   0.7629395E-05
                                                   DISCREPANCY (PERCENT):   0.8315082E-04
     1 CALLS TO GCG PACKAGE FOR TRANSPORT TIME STEP    20 IN FLOW TIME STEP     1 STRESS PERIOD     2
      2 TOTAL ITERATIONS
     1 CALLS TO GCG PACKAGE FOR TRANSPORT TIME STEP    21 IN FLOW TIME STEP     1 STRESS PERIOD     2
      3 TOTAL ITERATIONS
     1 CALLS TO GCG PACKAGE FOR TRANSPORT TIME STEP    22 IN FLOW TIME STEP     1 STRESS PERIOD     2
      2 TOTAL ITERATIONS



 >>>>>>>>>>>>>>>>>>>>>>>>>>>>>>>>>>>>>>>>>>>>>>>>>>>>>>>FOR COMPONENT NO. 01<<<<<<<<<<<<<<<<<<<<<<<<<<<<<<<<<<<<<<<<<<<<<<<<<<<<<<<


                                            -------------------------------------------
                                                      TRANSPORT STEP NO.   22
                                            -------------------------------------------

 TOTAL ELAPSED TIME SINCE BEGINNING OF SIMULATION =   6.833300    M   
 .....................................................................

                     CUMULATIVE MASS BUDGETS AT END OF TRANSPORT STEP   22, TIME STEP    1, STRESS PERIOD    2
                     -----------------------------------------------------------------------------------------

                                                             IN                           OUT
                                                      ----------------             ----------------
                               CONSTANT CONCENTRATION:    0.000000                    0.000000    
                                        CONSTANT HEAD:    0.000000                  -0.3639360E-36
                                                WELLS:    3.468775                    0.000000    
                               MASS STOR (FLOW MODEL):    0.000000                    0.000000    
                                MASS STORAGE (SOLUTE):    6.501849                   -9.970613    
                            ---------------------------------------------------------------------------
                                              [TOTAL]:    9.970623     KG            -9.970613     KG  

                                                          NET (IN - OUT):   0.9536743E-05
                                                   DISCREPANCY (PERCENT):   0.9564847E-04
     1 CALLS TO GCG PACKAGE FOR TRANSPORT TIME STEP    23 IN FLOW TIME STEP     1 STRESS PERIOD     2
      2 TOTAL ITERATIONS
     1 CALLS TO GCG PACKAGE FOR TRANSPORT TIME STEP    24 IN FLOW TIME STEP     1 STRESS PERIOD     2
      2 TOTAL ITERATIONS
     1 CALLS TO GCG PACKAGE FOR TRANSPORT TIME STEP    25 IN FLOW TIME STEP     1 STRESS PERIOD     2
      2 TOTAL ITERATIONS



 >>>>>>>>>>>>>>>>>>>>>>>>>>>>>>>>>>>>>>>>>>>>>>>>>>>>>>>FOR COMPONENT NO. 01<<<<<<<<<<<<<<<<<<<<<<<<<<<<<<<<<<<<<<<<<<<<<<<<<<<<<<<


                                            -------------------------------------------
                                                      TRANSPORT STEP NO.   25
                                            -------------------------------------------

 TOTAL ELAPSED TIME SINCE BEGINNING OF SIMULATION =   7.516700    M   
 .....................................................................

                     CUMULATIVE MASS BUDGETS AT END OF TRANSPORT STEP   25, TIME STEP    1, STRESS PERIOD    2
                     -----------------------------------------------------------------------------------------

                                                             IN                           OUT
                                                      ----------------             ----------------
                               CONSTANT CONCENTRATION:    0.000000                    0.000000    
                                        CONSTANT HEAD:    0.000000                  -0.9237984E-34
                                                WELLS:    3.468775                    0.000000    
                               MASS STOR (FLOW MODEL):    0.000000                    0.000000    
                                MASS STORAGE (SOLUTE):    7.271478                   -10.74024    
                            ---------------------------------------------------------------------------
                                              [TOTAL]:    10.74025     KG            -10.74024     KG  

                                                          NET (IN - OUT):   0.1144409E-04
                                                   DISCREPANCY (PERCENT):   0.1065533E-03
     1 CALLS TO GCG PACKAGE FOR TRANSPORT TIME STEP    26 IN FLOW TIME STEP     1 STRESS PERIOD     2
      2 TOTAL ITERATIONS
     1 CALLS TO GCG PACKAGE FOR TRANSPORT TIME STEP    27 IN FLOW TIME STEP     1 STRESS PERIOD     2
      2 TOTAL ITERATIONS
     1 CALLS TO GCG PACKAGE FOR TRANSPORT TIME STEP    28 IN FLOW TIME STEP     1 STRESS PERIOD     2
      2 TOTAL ITERATIONS



 >>>>>>>>>>>>>>>>>>>>>>>>>>>>>>>>>>>>>>>>>>>>>>>>>>>>>>>FOR COMPONENT NO. 01<<<<<<<<<<<<<<<<<<<<<<<<<<<<<<<<<<<<<<<<<<<<<<<<<<<<<<<


                                            -------------------------------------------
                                                      TRANSPORT STEP NO.   28
                                            -------------------------------------------

 TOTAL ELAPSED TIME SINCE BEGINNING OF SIMULATION =   8.200000    M   
 .....................................................................

                     CUMULATIVE MASS BUDGETS AT END OF TRANSPORT STEP   28, TIME STEP    1, STRESS PERIOD    2
                     -----------------------------------------------------------------------------------------

                                                             IN                           OUT
                                                      ----------------             ----------------
                               CONSTANT CONCENTRATION:    0.000000                    0.000000    
                                        CONSTANT HEAD:    0.000000                  -0.6743873E-32
                                                WELLS:    3.468775                    0.000000    
                               MASS STOR (FLOW MODEL):    0.000000                    0.000000    
                                MASS STORAGE (SOLUTE):    8.018099                   -11.48686    
                            ---------------------------------------------------------------------------
                                              [TOTAL]:    11.48687     KG            -11.48686     KG  

                                                          NET (IN - OUT):   0.1430511E-04
                                                   DISCREPANCY (PERCENT):   0.1245345E-03
     1 CALLS TO GCG PACKAGE FOR TRANSPORT TIME STEP    29 IN FLOW TIME STEP     1 STRESS PERIOD     2
      2 TOTAL ITERATIONS
     1 CALLS TO GCG PACKAGE FOR TRANSPORT TIME STEP    30 IN FLOW TIME STEP     1 STRESS PERIOD     2
      2 TOTAL ITERATIONS
     1 CALLS TO GCG PACKAGE FOR TRANSPORT TIME STEP    31 IN FLOW TIME STEP     1 STRESS PERIOD     2
      2 TOTAL ITERATIONS



 >>>>>>>>>>>>>>>>>>>>>>>>>>>>>>>>>>>>>>>>>>>>>>>>>>>>>>>FOR COMPONENT NO. 01<<<<<<<<<<<<<<<<<<<<<<<<<<<<<<<<<<<<<<<<<<<<<<<<<<<<<<<


[...]


 >>>>>>>>>>>>>>>>>>>>>>>>>>>>>>>>>>>>>>>>>>>>>>>>>>>>>>>FOR COMPONENT NO. 01<<<<<<<<<<<<<<<<<<<<<<<<<<<<<<<<<<<<<<<<<<<<<<<<<<<<<<<


                                            -------------------------------------------
                                                      TRANSPORT STEP NO.  328
                                            -------------------------------------------

 TOTAL ELAPSED TIME SINCE BEGINNING OF SIMULATION =   76.53300    M   
 .....................................................................

                     CUMULATIVE MASS BUDGETS AT END OF TRANSPORT STEP  328, TIME STEP    1, STRESS PERIOD    2
                     -----------------------------------------------------------------------------------------

                                                             IN                           OUT
                                                      ----------------             ----------------
                               CONSTANT CONCENTRATION:    0.000000                    0.000000    
                                        CONSTANT HEAD:    0.000000                   -3.420761    
                                                WELLS:    3.468775                    0.000000    
                               MASS STOR (FLOW MODEL):    0.000000                    0.000000    
                                MASS STORAGE (SOLUTE):    24.83580                   -24.88390    
                            ---------------------------------------------------------------------------
                                              [TOTAL]:    28.30458     KG            -28.30466     KG  

                                                          NET (IN - OUT):  -0.8201599E-04
                                                   DISCREPANCY (PERCENT):  -0.2897619E-03
     1 CALLS TO GCG PACKAGE FOR TRANSPORT TIME STEP   329 IN FLOW TIME STEP     1 STRESS PERIOD     2
      3 TOTAL ITERATIONS
     1 CALLS TO GCG PACKAGE FOR TRANSPORT TIME STEP   330 IN FLOW TIME STEP     1 STRESS PERIOD     2
      3 TOTAL ITERATIONS
     1 CALLS TO GCG PACKAGE FOR TRANSPORT TIME STEP   331 IN FLOW TIME STEP     1 STRESS PERIOD     2
      2 TOTAL ITERATIONS



 >>>>>>>>>>>>>>>>>>>>>>>>>>>>>>>>>>>>>>>>>>>>>>>>>>>>>>>FOR COMPONENT NO. 01<<<<<<<<<<<<<<<<<<<<<<<<<<<<<<<<<<<<<<<<<<<<<<<<<<<<<<<


                                            -------------------------------------------
                                                      TRANSPORT STEP NO.  331
                                            -------------------------------------------

 TOTAL ELAPSED TIME SINCE BEGINNING OF SIMULATION =   77.21700    M   
 .....................................................................

                     CUMULATIVE MASS BUDGETS AT END OF TRANSPORT STEP  331, TIME STEP    1, STRESS PERIOD    2
                     -----------------------------------------------------------------------------------------

                                                             IN                           OUT
                                                      ----------------             ----------------
                               CONSTANT CONCENTRATION:    0.000000                    0.000000    
                                        CONSTANT HEAD:    0.000000                   -3.421315    
                                                WELLS:    3.468775                    0.000000    
                               MASS STOR (FLOW MODEL):    0.000000                    0.000000    
                                MASS STORAGE (SOLUTE):    24.83636                   -24.88390    
                            ---------------------------------------------------------------------------
                                              [TOTAL]:    28.30513     KG            -28.30522     KG  

                                                          NET (IN - OUT):  -0.8201599E-04
                                                   DISCREPANCY (PERCENT):  -0.2897562E-03
     1 CALLS TO GCG PACKAGE FOR TRANSPORT TIME STEP   332 IN FLOW TIME STEP     1 STRESS PERIOD     2
      3 TOTAL ITERATIONS
     1 CALLS TO GCG PACKAGE FOR TRANSPORT TIME STEP   333 IN FLOW TIME STEP     1 STRESS PERIOD     2
      3 TOTAL ITERATIONS
     1 CALLS TO GCG PACKAGE FOR TRANSPORT TIME STEP   334 IN FLOW TIME STEP     1 STRESS PERIOD     2
      2 TOTAL ITERATIONS



 >>>>>>>>>>>>>>>>>>>>>>>>>>>>>>>>>>>>>>>>>>>>>>>>>>>>>>>FOR COMPONENT NO. 01<<<<<<<<<<<<<<<<<<<<<<<<<<<<<<<<<<<<<<<<<<<<<<<<<<<<<<<


                                            -------------------------------------------
                                                      TRANSPORT STEP NO.  334
                                            -------------------------------------------

 TOTAL ELAPSED TIME SINCE BEGINNING OF SIMULATION =   77.90000    M   
 .....................................................................

                     CUMULATIVE MASS BUDGETS AT END OF TRANSPORT STEP  334, TIME STEP    1, STRESS PERIOD    2
                     -----------------------------------------------------------------------------------------

                                                             IN                           OUT
                                                      ----------------             ----------------
                               CONSTANT CONCENTRATION:    0.000000                    0.000000    
                                        CONSTANT HEAD:    0.000000                   -3.421862    
                                                WELLS:    3.468775                    0.000000    
                               MASS STOR (FLOW MODEL):    0.000000                    0.000000    
                                MASS STORAGE (SOLUTE):    24.83691                   -24.88390    
                            ---------------------------------------------------------------------------
                                              [TOTAL]:    28.30568     KG            -28.30577     KG  

                                                          NET (IN - OUT):  -0.8201599E-04
                                                   DISCREPANCY (PERCENT):  -0.2897505E-03
     1 CALLS TO GCG PACKAGE FOR TRANSPORT TIME STEP   335 IN FLOW TIME STEP     1 STRESS PERIOD     2
      3 TOTAL ITERATIONS
     1 CALLS TO GCG PACKAGE FOR TRANSPORT TIME STEP   336 IN FLOW TIME STEP     1 STRESS PERIOD     2
      3 TOTAL ITERATIONS
     1 CALLS TO GCG PACKAGE FOR TRANSPORT TIME STEP   337 IN FLOW TIME STEP     1 STRESS PERIOD     2
      2 TOTAL ITERATIONS



 >>>>>>>>>>>>>>>>>>>>>>>>>>>>>>>>>>>>>>>>>>>>>>>>>>>>>>>FOR COMPONENT NO. 01<<<<<<<<<<<<<<<<<<<<<<<<<<<<<<<<<<<<<<<<<<<<<<<<<<<<<<<


                                            -------------------------------------------
                                                      TRANSPORT STEP NO.  337
                                            -------------------------------------------

 TOTAL ELAPSED TIME SINCE BEGINNING OF SIMULATION =   78.58300    M   
 .....................................................................

                     CUMULATIVE MASS BUDGETS AT END OF TRANSPORT STEP  337, TIME STEP    1, STRESS PERIOD    2
                     -----------------------------------------------------------------------------------------

                                                             IN                           OUT
                                                      ----------------             ----------------
                               CONSTANT CONCENTRATION:    0.000000                    0.000000    
                                        CONSTANT HEAD:    0.000000                   -3.422402    
                                                WELLS:    3.468775                    0.000000    
                               MASS STOR (FLOW MODEL):    0.000000                    0.000000    
                                MASS STORAGE (SOLUTE):    24.83745                   -24.88391    
                            ---------------------------------------------------------------------------
                                              [TOTAL]:    28.30623     KG            -28.30631     KG  

                                                          NET (IN - OUT):  -0.8010864E-04
                                                   DISCREPANCY (PERCENT):  -0.2830068E-03
     1 CALLS TO GCG PACKAGE FOR TRANSPORT TIME STEP   338 IN FLOW TIME STEP     1 STRESS PERIOD     2
      3 TOTAL ITERATIONS
     1 CALLS TO GCG PACKAGE FOR TRANSPORT TIME STEP   339 IN FLOW TIME STEP     1 STRESS PERIOD     2
      3 TOTAL ITERATIONS
     1 CALLS TO GCG PACKAGE FOR TRANSPORT TIME STEP   340 IN FLOW TIME STEP     1 STRESS PERIOD     2
      2 TOTAL ITERATIONS



 >>>>>>>>>>>>>>>>>>>>>>>>>>>>>>>>>>>>>>>>>>>>>>>>>>>>>>>FOR COMPONENT NO. 01<<<<<<<<<<<<<<<<<<<<<<<<<<<<<<<<<<<<<<<<<<<<<<<<<<<<<<<


                                            -------------------------------------------
                                                      TRANSPORT STEP NO.  340
                                            -------------------------------------------

 TOTAL ELAPSED TIME SINCE BEGINNING OF SIMULATION =   79.26700    M   
 .....................................................................

                     CUMULATIVE MASS BUDGETS AT END OF TRANSPORT STEP  340, TIME STEP    1, STRESS PERIOD    2
                     -----------------------------------------------------------------------------------------

                                                             IN                           OUT
                                                      ----------------             ----------------
                               CONSTANT CONCENTRATION:    0.000000                    0.000000    
                                        CONSTANT HEAD:    0.000000                   -3.422936    
                                                WELLS:    3.468775                    0.000000    
                               MASS STOR (FLOW MODEL):    0.000000                    0.000000    
                                MASS STORAGE (SOLUTE):    24.83799                   -24.88391    
                            ---------------------------------------------------------------------------
                                              [TOTAL]:    28.30676     KG            -28.30684     KG  

                                                          NET (IN - OUT):  -0.7820129E-04
                                                   DISCREPANCY (PERCENT):  -0.2762633E-03
     1 CALLS TO GCG PACKAGE FOR TRANSPORT TIME STEP   341 IN FLOW TIME STEP     1 STRESS PERIOD     2
      3 TOTAL ITERATIONS
     1 CALLS TO GCG PACKAGE FOR TRANSPORT TIME STEP   342 IN FLOW TIME STEP     1 STRESS PERIOD     2
      3 TOTAL ITERATIONS
     1 CALLS TO GCG PACKAGE FOR TRANSPORT TIME STEP   343 IN FLOW TIME STEP     1 STRESS PERIOD     2
      2 TOTAL ITERATIONS



 >>>>>>>>>>>>>>>>>>>>>>>>>>>>>>>>>>>>>>>>>>>>>>>>>>>>>>>FOR COMPONENT NO. 01<<<<<<<<<<<<<<<<<<<<<<<<<<<<<<<<<<<<<<<<<<<<<<<<<<<<<<<


                                            -------------------------------------------
                                                      TRANSPORT STEP NO.  343
                                            -------------------------------------------

 TOTAL ELAPSED TIME SINCE BEGINNING OF SIMULATION =   79.95000    M   
 .....................................................................

                     CUMULATIVE MASS BUDGETS AT END OF TRANSPORT STEP  343, TIME STEP    1, STRESS PERIOD    2
                     -----------------------------------------------------------------------------------------

                                                             IN                           OUT
                                                      ----------------             ----------------
                               CONSTANT CONCENTRATION:    0.000000                    0.000000    
                                        CONSTANT HEAD:    0.000000                   -3.423464    
                                                WELLS:    3.468775                    0.000000    
                               MASS STOR (FLOW MODEL):    0.000000                    0.000000    
                                MASS STORAGE (SOLUTE):    24.83852                   -24.88391    
                            ---------------------------------------------------------------------------
                                              [TOTAL]:    28.30729     KG            -28.30737     KG  

                                                          NET (IN - OUT):  -0.7820129E-04
                                                   DISCREPANCY (PERCENT):  -0.2762581E-03
     1 CALLS TO GCG PACKAGE FOR TRANSPORT TIME STEP   344 IN FLOW TIME STEP     1 STRESS PERIOD     2
      3 TOTAL ITERATIONS
     1 CALLS TO GCG PACKAGE FOR TRANSPORT TIME STEP   345 IN FLOW TIME STEP     1 STRESS PERIOD     2
      3 TOTAL ITERATIONS
     1 CALLS TO GCG PACKAGE FOR TRANSPORT TIME STEP   346 IN FLOW TIME STEP     1 STRESS PERIOD     2
      2 TOTAL ITERATIONS



 >>>>>>>>>>>>>>>>>>>>>>>>>>>>>>>>>>>>>>>>>>>>>>>>>>>>>>>FOR COMPONENT NO. 01<<<<<<<<<<<<<<<<<<<<<<<<<<<<<<<<<<<<<<<<<<<<<<<<<<<<<<<


                                            -------------------------------------------
                                                      TRANSPORT STEP NO.  346
                                            -------------------------------------------

 TOTAL ELAPSED TIME SINCE BEGINNING OF SIMULATION =   80.63300    M   
 .....................................................................

                     CUMULATIVE MASS BUDGETS AT END OF TRANSPORT STEP  346, TIME STEP    1, STRESS PERIOD    2
                     -----------------------------------------------------------------------------------------

                                                             IN                           OUT
                                                      ----------------             ----------------
                               CONSTANT CONCENTRATION:    0.000000                    0.000000    
                                        CONSTANT HEAD:    0.000000                   -3.423985    
                                                WELLS:    3.468775                    0.000000    
                               MASS STOR (FLOW MODEL):    0.000000                    0.000000    
                                MASS STORAGE (SOLUTE):    24.83904                   -24.88391    
                            ---------------------------------------------------------------------------
                                              [TOTAL]:    28.30781     KG            -28.30789     KG  

                                                          NET (IN - OUT):  -0.7629395E-04
                                                   DISCREPANCY (PERCENT):  -0.2695151E-03
     1 CALLS TO GCG PACKAGE FOR TRANSPORT TIME STEP   347 IN FLOW TIME STEP     1 STRESS PERIOD     2
      3 TOTAL ITERATIONS
     1 CALLS TO GCG PACKAGE FOR TRANSPORT TIME STEP   348 IN FLOW TIME STEP     1 STRESS PERIOD     2
      3 TOTAL ITERATIONS
     1 CALLS TO GCG PACKAGE FOR TRANSPORT TIME STEP   349 IN FLOW TIME STEP     1 STRESS PERIOD     2
      2 TOTAL ITERATIONS



 >>>>>>>>>>>>>>>>>>>>>>>>>>>>>>>>>>>>>>>>>>>>>>>>>>>>>>>FOR COMPONENT NO. 01<<<<<<<<<<<<<<<<<<<<<<<<<<<<<<<<<<<<<<<<<<<<<<<<<<<<<<<


                                            -------------------------------------------
                                                      TRANSPORT STEP NO.  349
                                            -------------------------------------------

 TOTAL ELAPSED TIME SINCE BEGINNING OF SIMULATION =   81.31700    M   
 .....................................................................

                     CUMULATIVE MASS BUDGETS AT END OF TRANSPORT STEP  349, TIME STEP    1, STRESS PERIOD    2
                     -----------------------------------------------------------------------------------------

                                                             IN                           OUT
                                                      ----------------             ----------------
                               CONSTANT CONCENTRATION:    0.000000                    0.000000    
                                        CONSTANT HEAD:    0.000000                   -3.424500    
                                                WELLS:    3.468775                    0.000000    
                               MASS STOR (FLOW MODEL):    0.000000                    0.000000    
                                MASS STORAGE (SOLUTE):    24.83956                   -24.88391    
                            ---------------------------------------------------------------------------
                                              [TOTAL]:    28.30833     KG            -28.30840     KG  

                                                          NET (IN - OUT):  -0.7247925E-04
                                                   DISCREPANCY (PERCENT):  -0.2560347E-03
     1 CALLS TO GCG PACKAGE FOR TRANSPORT TIME STEP   350 IN FLOW TIME STEP     1 STRESS PERIOD     2
      3 TOTAL ITERATIONS
     1 CALLS TO GCG PACKAGE FOR TRANSPORT TIME STEP   351 IN FLOW TIME STEP     1 STRESS PERIOD     2
      3 TOTAL ITERATIONS
     1 CALLS TO GCG PACKAGE FOR TRANSPORT TIME STEP   352 IN FLOW TIME STEP     1 STRESS PERIOD     2
      2 TOTAL ITERATIONS
  MAXIMUM CONCENTRATION CHANGES FOR EACH ITERATION:
  MAX. CHANGE LAYER,ROW,COL MAX. CHANGE LAYER,ROW,COL MAX. CHANGE LAYER,ROW,COL MAX. CHANGE LAYER,ROW,COL MAX. CHANGE LAYER,ROW,COL
 ------------------------------------------------------------------------------------------------------------------------------------
   0.6314E-01 (  4, 18, 42)  0.5186E-05 (  4,  4, 41)



 >>>>>>>>>>>>>>>>>>>>>>>>>>>>>>>>>>>>>>>>>>>>>>>>>>>>>>>FOR COMPONENT NO. 01<<<<<<<<<<<<<<<<<<<<<<<<<<<<<<<<<<<<<<<<<<<<<<<<<<<<<<<


                                            -------------------------------------------
                                                      TRANSPORT STEP NO.  352
                                            -------------------------------------------

 TOTAL ELAPSED TIME SINCE BEGINNING OF SIMULATION =   82.00000    M   
 .....................................................................

                     CUMULATIVE MASS BUDGETS AT END OF TRANSPORT STEP  352, TIME STEP    1, STRESS PERIOD    2
                     -----------------------------------------------------------------------------------------

                                                             IN                           OUT
                                                      ----------------             ----------------
                               CONSTANT CONCENTRATION:    0.000000                    0.000000    
                                        CONSTANT HEAD:    0.000000                   -3.425009    
                                                WELLS:    3.468775                    0.000000    
                               MASS STOR (FLOW MODEL):    0.000000                    0.000000    
                                MASS STORAGE (SOLUTE):    24.84007                   -24.88391    
                            ---------------------------------------------------------------------------
                                              [TOTAL]:    28.30884     KG            -28.30891     KG  

                                                          NET (IN - OUT):  -0.7057190E-04
                                                   DISCREPANCY (PERCENT):  -0.2492924E-03
  ----- 
 | M T |
 | 3 D | END OF MODEL OUTPUT
  ----- 
